&HEAD CHID='v3_20230820'/
&TIME T_END=200.0, DT=0.01, WALL_INCREMENT=1/
&DUMP DT_RESTART=5.0/

&MESH ID='Mesh01', IJK=82,82,49, XB=-0.305,1.745,-0.305,1.745,1.825,3.05/
&MESH ID='Mesh02', IJK=82,32,66, XB=-0.305,1.745,-0.305,0.495,0.175,1.825/
&MESH ID='Mesh03', IJK=82,20,66, XB=-0.305,1.745,1.245,1.745,0.175,1.825/
&MESH ID='Mesh04', IJK=25,30,66, XB=-0.305,0.32,0.495,1.245,0.175,1.825/
&MESH ID='Mesh05', IJK=27,30,66, XB=1.07,1.745,0.495,1.245,0.175,1.825/
&MESH ID='Mesh06', IJK=30,30,66, XB=0.32,1.07,0.495,1.245,0.175,1.825/

&RADI NUMBER_RADIATION_ANGLES=300/ 

&REAC ID='MMA', FUEL='MMA',SOOT_YIELD=0.018,HEAT_OF_COMBUSTION=2.41E+4/

&SPEC ID='MMA', FORMULA='C5O2H8', RADCAL_ID='MMA', RAMP_CP='MMA_SPECIFIC_HEAT_RAMP'/
&RAMP ID='MMA_SPECIFIC_HEAT_RAMP',T=113,F=1.5/ 
&RAMP ID='MMA_SPECIFIC_HEAT_RAMP',T=299,F=1.9/


&MATL ID='PMMA',
      SPECIFIC_HEAT_RAMP='maCFP_PMMA_SPECIFIC_HEAT_RAMP',
      CONDUCTIVITY_RAMP='maCFP_PMMA_CONDUCTIVITY_RAMP',
      DENSITY=1181.6,
      ABSORPTION_COEFFICIENT=2250.0,
      EMISSIVITY=0.96,
      HEAT_OF_COMBUSTION=2.41E+4,
      N_REACTIONS=1,
      HEAT_OF_REACTION=983.0,
      SPEC_ID(1,1)='MMA',
      NU_SPEC(1,1)=1.0,
      N_S=1.03,
      A=6.31E+8,
      E=1.332E+5,
 

&RAMP ID='maCFP_PMMA_CONDUCTIVITY_RAMP', T=19.9, F=0.17331/
&RAMP ID='maCFP_PMMA_CONDUCTIVITY_RAMP', T=24.9, F=0.17384/
&RAMP ID='maCFP_PMMA_CONDUCTIVITY_RAMP', T=29.8, F=0.17402/
&RAMP ID='maCFP_PMMA_CONDUCTIVITY_RAMP', T=34.7, F=0.17448/
&RAMP ID='maCFP_PMMA_CONDUCTIVITY_RAMP', T=39.6, F=0.17609/
&RAMP ID='maCFP_PMMA_CONDUCTIVITY_RAMP', T=44.6, F=0.17784/
&RAMP ID='maCFP_PMMA_CONDUCTIVITY_RAMP', T=49.5, F=0.17862/
&RAMP ID='maCFP_PMMA_CONDUCTIVITY_RAMP', T=54.4, F=0.17821/
&RAMP ID='maCFP_PMMA_CONDUCTIVITY_RAMP', T=59.3, F=0.17775/
&RAMP ID='maCFP_PMMA_CONDUCTIVITY_RAMP', T=64.2, F=0.1777/

&RAMP ID='maCFP_PMMA_SPECIFIC_HEAT_RAMP', T=35.0, F=1.8/
&RAMP ID='maCFP_PMMA_SPECIFIC_HEAT_RAMP', T=40.0, F=1.7/
&RAMP ID='maCFP_PMMA_SPECIFIC_HEAT_RAMP', T=100.0, F=1.6/
&RAMP ID='maCFP_PMMA_SPECIFIC_HEAT_RAMP', T=140.0, F=1.4/

&MATL ID='kaowool',
      SPECIFIC_HEAT=1.070,
      CONDUCTIVITY_RAMP='Kaowool_CONDUCTIVITY_RAMP',
      DENSITY=256.,
      EMISSIVITY=1/

&RAMP ID='Kaowool_CONDUCTIVITY_RAMP', T=25, F=0.03364/ taken from DBIs measurements of Morgan thermal ceramics
&RAMP ID='Kaowool_CONDUCTIVITY_RAMP', T=260, F=0.0576/
&RAMP ID='Kaowool_CONDUCTIVITY_RAMP', T=538, F=0.085/
&RAMP ID='Kaowool_CONDUCTIVITY_RAMP', T=816, F=0.125/
&RAMP ID='Kaowool_CONDUCTIVITY_RAMP', T=1093, F=0.183/


&MATL ID='Marinite',
      SPECIFIC_HEAT=1.26,
      CONDUCTIVITY=0.13,
      DENSITY=737.0/

&SURF ID='Exhaust',
      RGB=26,204,26,
      VOLUME_FLOW=0.56/

&SURF ID='BURNER',
      COLOR='RED',
      TMP_FRONT=100.0,
      MASS_FLUX=0.036214,
      SPEC_ID='MMA',
      RAMP_MF(1)='BURNER_RAMP_Q',
      RAMP_T='BURNER_RAMP_Q'/

&RAMP ID='BURNER_RAMP_Q', T=0.0, F=0.0/
&RAMP ID='BURNER_RAMP_Q', T=1.0, F=0.0495/
&RAMP ID='BURNER_RAMP_Q', T=2.0, F=0.231667/
&RAMP ID='BURNER_RAMP_Q', T=3.0, F=0.3606/
&RAMP ID='BURNER_RAMP_Q', T=4.0, F=0.494833/
&RAMP ID='BURNER_RAMP_Q', T=5.0, F=0.589867/
&RAMP ID='BURNER_RAMP_Q', T=6.0, F=0.652867/
&RAMP ID='BURNER_RAMP_Q', T=7.0, F=0.704933/
&RAMP ID='BURNER_RAMP_Q', T=8.0, F=0.770267/
&RAMP ID='BURNER_RAMP_Q', T=9.0, F=0.779767/
&RAMP ID='BURNER_RAMP_Q', T=10.0, F=0.844933/
&RAMP ID='BURNER_RAMP_Q', T=11.0, F=0.857867/
&RAMP ID='BURNER_RAMP_Q', T=12.0, F=0.887967/
&RAMP ID='BURNER_RAMP_Q', T=13.0, F=0.889033/
&RAMP ID='BURNER_RAMP_Q', T=14.0, F=0.927467/
&RAMP ID='BURNER_RAMP_Q', T=15.0, F=1.0/
&RAMP ID='BURNER_RAMP_Q', T=16.0, F=1.0/
&RAMP ID='BURNER_RAMP_Q', T=200.0, F=1.0/


&SURF ID='PMMA_1',
      RGB=153,204,255,
      MATL_ID(1,1)='PMMA',
      MATL_ID(2,1)='kaowool',
      MATL_MASS_FRACTION(1,1)=1.0,
      MATL_MASS_FRACTION(2,1)=1.0,
      STRETCH_FACTOR(1:2) = 1.0,1.0,
      THICKNESS(1:2)=5.8E-3,0.0127,
      HEAT_TRANSFER_COEFFICIENT=12.,
      CELL_SIZE_FACTOR=0.1/


&SURF ID='PMMA_2',
      RGB=153,204,255,
      MATL_ID(1,1)='kaowool',
      MATL_ID(2,1)='PMMA',
      MATL_MASS_FRACTION(1,1)=1.0,
      MATL_MASS_FRACTION(2,1)=1.0,
      STRETCH_FACTOR(1:2) = 1.0,1.0,
      THICKNESS(1:2)=0.0127,5.8E-3,
      HEAT_TRANSFER_COEFFICIENT=12.,
      CELL_SIZE_FACTOR=0.1/


&SURF ID='Marinite',
      RGB=146,202,166,
      BACKING='VOID',
      MATL_ID(1,1)='Marinite',
      MATL_MASS_FRACTION(1,1)=1.0,
      THICKNESS(1)=0.0127/


&OBST ID='Obstruction10', XB=0.645,0.67,0.595,0.62,0.36,0.4, SURF_IDS='BURNER','INERT','INERT'/ 
&OBST ID='Obstruction9', XB=0.62,0.645,0.595,0.645,0.36,0.4, SURF_IDS='BURNER','INERT','INERT'/ 
&OBST ID='Obstruction8', XB=0.595,0.62,0.595,0.67,0.36,0.4, SURF_IDS='BURNER','INERT','INERT'/ 
&OBST ID='Obstruction7', XB=0.57,0.595,0.595,0.695,0.36,0.4, SURF_IDS='BURNER','INERT','INERT'/ 
&OBST ID='Obstruction6', XB=0.545,0.57,0.595,0.72,0.36,0.4, SURF_IDS='BURNER','INERT','INERT'/ 
&OBST ID='Obstruction5', XB=0.52,0.545,0.595,0.745,0.36,0.4, SURF_IDS='BURNER','INERT','INERT'/ 
&OBST ID='Obstruction4', XB=0.495,0.52,0.595,0.77,0.36,0.4, SURF_IDS='BURNER','INERT','INERT'/ 
&OBST ID='Obstruction3', XB=0.47,0.495,0.595,0.795,0.36,0.4, SURF_IDS='BURNER','INERT','INERT'/ 
&OBST ID='Obstruction2', XB=0.445,0.47,0.595,0.82,0.36,0.4, SURF_IDS='BURNER','INERT','INERT'/ 
&OBST ID='Obstruction1', XB=0.42,0.445,0.595,0.845,0.36,0.4, SURF_IDS='BURNER','INERT','INERT'/ 

&OBST ID='PMMA', XB=0.34,0.84,0.52,0.545,0.36,1.82, SURF_ID6='PMMA_1','PMMA_2','Marinite','Marinite','Marinite','Marinite'/  

&OBST ID='Obstruction #2', XB=0.34,1.04,0.52,1.22,0.36,0.36, COLOR='GRAY 94', SURF_ID='INERT'/ 
&OBST ID='Obstruction1', XB=0.34,1.04,0.495,0.52,0.36,1.82, COLOR='GRAY 80', SURF_ID='Marinite'/ 
&OBST ID='Obstruction1', XB=0.32,0.345,0.52,1.22,0.36,1.82, COLOR='GRAY 80', SURF_ID='Marinite'/ 

&OBST ID='PMMA Board1', XB=0.345,0.37,0.52,1.02,0.36,1.82, SURF_ID6='Marinite','Marinite','PMMA_2','PMMA_1','Marinite','Marinite'/  

&OBST ID='Mesh Vent: Mesh5 [ZMAX]04', XB=0.62,0.82,0.595,0.82,2.975,3.0, RGB=102,102,255, SURF_IDS='INERT','INERT','Exhaust'/ 
&OBST ID='Obstruction #1', XB=1.72,1.72,-0.28,1.72,2.4,2.45, COLOR='GRAY 60', SURF_ID='INERT'/ 
&OBST ID='Obstruction1', XB=-0.28,1.72,-0.28,-0.28,2.4,2.45, COLOR='GRAY 60', SURF_ID='INERT'/ 
&OBST ID='Obstruction1', XB=-0.28,1.72,1.72,1.72,2.4,2.45, COLOR='GRAY 60', SURF_ID='INERT'/ 
&OBST ID='Obstruction #1', XB=-0.28,-0.28,-0.28,1.72,2.4,2.45, COLOR='GRAY 60', SURF_ID='INERT'/ 
&OBST ID='Obstruction1', XB=-0.205,1.645,-0.23,-0.23,2.45,2.5, COLOR='GRAY 60', SURF_ID='INERT'/ 
&OBST ID='Obstruction #1', XB=1.645,1.72,-0.28,1.72,2.45,2.45, COLOR='GRAY 60', SURF_ID='INERT'/ 
&OBST ID='Obstruction1', XB=-0.28,1.72,-0.28,-0.23,2.45,2.45, COLOR='GRAY 60', SURF_ID='INERT'/ 
&OBST ID='Obstruction1', XB=-0.205,1.645,-0.23,-0.155,2.5,2.5, COLOR='GRAY 60', SURF_ID='INERT'/ 
&OBST ID='Obstruction #1', XB=-0.28,-0.205,-0.28,1.72,2.45,2.45, COLOR='GRAY 60', SURF_ID='INERT'/ 
&OBST ID='Obstruction1', XB=-0.28,1.72,1.645,1.72,2.45,2.45, COLOR='GRAY 60', SURF_ID='INERT'/ 
&OBST ID='Obstruction1', XB=-0.13,1.57,-0.155,-0.08,2.55,2.55, COLOR='GRAY 60', SURF_ID='INERT'/ 
&OBST ID='Obstruction1', XB=-0.13,1.57,-0.155,-0.155,2.5,2.55, COLOR='GRAY 60', SURF_ID='INERT'/ 
&OBST ID='Obstruction1', XB=-0.055,1.495,-0.08,-5.0E-3,2.6,2.6, COLOR='GRAY 60', SURF_ID='INERT'/ 
&OBST ID='Obstruction1', XB=-0.055,1.495,-0.08,-0.08,2.55,2.6, COLOR='GRAY 60', SURF_ID='INERT'/ 
&OBST ID='Obstruction1', XB=0.02,1.42,-5.0E-3,0.07,2.65,2.65, COLOR='GRAY 60', SURF_ID='INERT'/ 
&OBST ID='Obstruction1', XB=0.02,1.42,-5.0E-3,-5.0E-3,2.6,2.65, COLOR='GRAY 60', SURF_ID='INERT'/ 
&OBST ID='Obstruction1', XB=0.095,1.345,0.07,0.145,2.7,2.7, COLOR='GRAY 60', SURF_ID='INERT'/ 
&OBST ID='Obstruction1', XB=0.095,1.345,0.07,0.07,2.65,2.7, COLOR='GRAY 60', SURF_ID='INERT'/ 
&OBST ID='Obstruction1', XB=0.17,1.27,0.145,0.22,2.75,2.75, COLOR='GRAY 60', SURF_ID='INERT'/ 
&OBST ID='Obstruction1', XB=0.17,1.27,0.145,0.145,2.7,2.75, COLOR='GRAY 60', SURF_ID='INERT'/ 
! ... 81 like lines cut

&OBST ID='Obstruction1', XB=-0.28,1.72,1.72,1.72,0.8,2.4, COLOR='GRAY 80', SURF_ID='INERT'/ 

&OBST ID='Obstruction #1', XB=-0.28,-0.28,-0.28,1.72,0.2,2.4, COLOR='GRAY 80', SURF_ID='INERT'/ 
&OBST ID='Mesh Vent: Mesh5 [ZMAX]01', XB=-0.28,1.72,-0.28,1.72,0.2,0.2, COLOR='GRAY 80', SURF_ID='INERT'/ 
&OBST ID='Obstruction #1', XB=1.72,1.72,-0.28,1.72,0.8,2.4, COLOR='GRAY 80', SURF_ID='INERT'/ 





&OBST ID='Obstruction #1', XB=1.72,1.72,-0.28,-0.255,0.75,0.775, COLOR='GRAY 80', SURF_ID='INERT'/ 
&OBST ID='Obstruction #1', XB=1.72,1.72,-0.28,-0.255,0.775,0.8, COLOR='GRAY 80', SURF_ID='INERT'/ 
&OBST ID='Obstruction #1', XB=1.72,1.72,-0.28,-0.255,0.8,0.825, COLOR='GRAY 80', SURF_ID='INERT'/ 
&OBST ID='Obstruction #1', XB=1.72,1.72,-0.23,-0.205,0.275,0.3, COLOR='GRAY 80', SURF_ID='INERT'/ 
&OBST ID='Obstruction #1', XB=1.72,1.72,-0.23,-0.205,0.225,0.25, COLOR='GRAY 80', SURF_ID='INERT'/ 
&OBST ID='Obstruction #1', XB=1.72,1.72,-0.23,-0.205,0.325,0.35, COLOR='GRAY 80', SURF_ID='INERT'/ 
&OBST ID='Obstruction #1', XB=1.72,1.72,-0.23,-0.205,0.375,0.4, COLOR='GRAY 80', SURF_ID='INERT'/ 
&OBST ID='Obstruction #1', XB=1.72,1.72,-0.23,-0.205,0.425,0.45, COLOR='GRAY 80', SURF_ID='INERT'/ 
&OBST ID='Obstruction #1', XB=1.72,1.72,-0.23,-0.205,0.475,0.5, COLOR='GRAY 80', SURF_ID='INERT'/ 
&OBST ID='Obstruction #1', XB=1.72,1.72,-0.23,-0.205,0.525,0.55, COLOR='GRAY 80', SURF_ID='INERT'/ 
&OBST ID='Obstruction #1', XB=1.72,1.72,-0.23,-0.205,0.575,0.6, COLOR='GRAY 80', SURF_ID='INERT'/ 
&OBST ID='Obstruction #1', XB=1.72,1.72,-0.23,-0.205,0.625,0.65, COLOR='GRAY 80', SURF_ID='INERT'/ 
&OBST ID='Obstruction #1', XB=1.72,1.72,-0.23,-0.205,0.675,0.7, COLOR='GRAY 80', SURF_ID='INERT'/ 
&OBST ID='Obstruction #1', XB=1.72,1.72,-0.23,-0.205,0.725,0.75, COLOR='GRAY 80', SURF_ID='INERT'/ 
&OBST ID='Obstruction #1', XB=1.72,1.72,-0.23,-0.205,0.775,0.8, COLOR='GRAY 80', SURF_ID='INERT'/ 
&OBST ID='Obstruction #1', XB=1.72,1.72,-0.18,-0.155,0.275,0.3, COLOR='GRAY 80', SURF_ID='INERT'/ 
&OBST ID='Obstruction #1', XB=1.72,1.72,-0.18,-0.155,0.225,0.25, COLOR='GRAY 80', SURF_ID='INERT'/ 
&OBST ID='Obstruction #1', XB=1.72,1.72,-0.18,-0.155,0.325,0.35, COLOR='GRAY 80', SURF_ID='INERT'/ 
&OBST ID='Obstruction #1', XB=1.72,1.72,-0.18,-0.155,0.375,0.4, COLOR='GRAY 80', SURF_ID='INERT'/ 
&OBST ID='Obstruction #1', XB=1.72,1.72,-0.18,-0.155,0.425,0.45, COLOR='GRAY 80', SURF_ID='INERT'/ 
! ... 1411 like lines cut





&VENT ID='Mesh Vent: Mesh01 [XMAX]', SURF_ID='OPEN', XB=1.745,1.745,-0.305,1.745,1.825,3.05/ 
&VENT ID='Mesh Vent: Mesh01 [XMIN]', SURF_ID='OPEN', XB=-0.305,-0.305,-0.305,1.745,1.825,3.05/ 
&VENT ID='Mesh Vent: Mesh01 [YMAX]', SURF_ID='OPEN', XB=-0.305,1.745,1.745,1.745,1.825,3.05/ 
&VENT ID='Mesh Vent: Mesh01 [YMIN]', SURF_ID='OPEN', XB=-0.305,1.745,-0.305,-0.305,1.825,3.05/ 
&VENT ID='Mesh Vent: Mesh01 [ZMAX]', SURF_ID='OPEN', XB=-0.305,1.745,-0.305,1.745,3.05,3.05/ 
&VENT ID='Mesh Vent: Mesh02 [XMAX]', SURF_ID='OPEN', XB=1.745,1.745,-0.305,0.495,0.175,1.825/ 
&VENT ID='Mesh Vent: Mesh02 [XMIN]', SURF_ID='OPEN', XB=-0.305,-0.305,-0.305,0.495,0.175,1.825/ 
&VENT ID='Mesh Vent: Mesh02 [YMIN]', SURF_ID='OPEN', XB=-0.305,1.745,-0.305,-0.305,0.175,1.825/ 
&VENT ID='Mesh Vent: Mesh02 [ZMIN]', SURF_ID='OPEN', XB=-0.305,1.745,-0.305,0.495,0.175,0.175/ 
&VENT ID='Mesh Vent: Mesh03 [XMAX]', SURF_ID='OPEN', XB=1.745,1.745,1.245,1.745,0.175,1.825/ 
&VENT ID='Mesh Vent: Mesh03 [XMIN]', SURF_ID='OPEN', XB=-0.305,-0.305,1.245,1.745,0.175,1.825/ 
&VENT ID='Mesh Vent: Mesh03 [YMAX]', SURF_ID='OPEN', XB=-0.305,1.745,1.745,1.745,0.175,1.825/ 
&VENT ID='Mesh Vent: Mesh03 [ZMIN]', SURF_ID='OPEN', XB=-0.305,1.745,1.245,1.745,0.175,0.175/ 
&VENT ID='Mesh Vent: Mesh04 [XMIN]', SURF_ID='OPEN', XB=-0.305,-0.305,0.495,1.245,0.175,1.825/ 
&VENT ID='Mesh Vent: Mesh04 [ZMIN]', SURF_ID='OPEN', XB=-0.305,0.32,0.495,1.245,0.175,0.175/ 
&VENT ID='Mesh Vent: Mesh05 [XMAX]', SURF_ID='OPEN', XB=1.745,1.745,0.495,1.245,0.175,1.825/ 
&VENT ID='Mesh Vent: Mesh05 [ZMIN]', SURF_ID='OPEN', XB=1.07,1.745,0.495,1.245,0.175,0.175/ 
&VENT ID='Mesh Vent: Mesh06 [ZMIN]', SURF_ID='OPEN', XB=0.32,1.07,0.495,1.245,0.175,0.175/ 




&PROP ID='SOLID props', GAUGE_TEMPERATURE=20.0/
&PROP ID='SOLID01 props', GAUGE_TEMPERATURE=20.0/
&PROP ID='SOLID02 props', GAUGE_TEMPERATURE=20.0/
&PROP ID='SOLID03 props', GAUGE_TEMPERATURE=20.0/
&PROP ID='SOLID04 props', GAUGE_TEMPERATURE=20.0/
&PROP ID='SOLID05 props', GAUGE_TEMPERATURE=20.0/
&PROP ID='SOLID06 props', GAUGE_TEMPERATURE=20.0/
&PROP ID='SOLID07 props', GAUGE_TEMPERATURE=20.0/
&PROP ID='SOLID08 props', GAUGE_TEMPERATURE=20.0/
&PROP ID='SOLID09 props', GAUGE_TEMPERATURE=20.0/
&PROP ID='SOLID10 props', GAUGE_TEMPERATURE=20.0/
&PROP ID='SOLID11 props', GAUGE_TEMPERATURE=20.0/
&PROP ID='SOLID12 props', GAUGE_TEMPERATURE=20.0/
&PROP ID='SOLID13 props', GAUGE_TEMPERATURE=20.0/
&PROP ID='SOLID14 props', GAUGE_TEMPERATURE=20.0/
&PROP ID='SOLID15 props', GAUGE_TEMPERATURE=20.0/
&PROP ID='SOLID16 props', GAUGE_TEMPERATURE=20.0/
&PROP ID='SOLID17 props', GAUGE_TEMPERATURE=20.0/
&PROP ID='SOLID18 props', GAUGE_TEMPERATURE=20.0/
&PROP ID='SOLID19 props', GAUGE_TEMPERATURE=20.0/
&PROP ID='SOLID20 props', GAUGE_TEMPERATURE=20.0/
! ... 35 like lines cut



&DEVC ID='burning rate5', QUANTITY='BURNING RATE', XYZ=0.42,0.545,0.5, IOR=2/
&DEVC ID='burning rate5_1', QUANTITY='BURNING RATE', XYZ=0.42,0.545,0.5, IOR=2/
&DEVC ID='burning rate22_1', QUANTITY='BURNING RATE', XYZ=0.59,0.545,0.5, IOR=2/
&DEVC ID='burning rate01', QUANTITY='BURNING RATE', XYZ=0.42,0.545,0.6, IOR=2/
&DEVC ID='burning rate5_01', QUANTITY='BURNING RATE', XYZ=0.42,0.545,0.6, IOR=2/
&DEVC ID='burning rate22_01', QUANTITY='BURNING RATE', XYZ=0.59,0.545,0.6, IOR=2/
&DEVC ID='burning rate03', QUANTITY='BURNING RATE', XYZ=0.42,0.545,0.7, IOR=2/
&DEVC ID='burning rate5_02', QUANTITY='BURNING RATE', XYZ=0.42,0.545,0.7, IOR=2/
&DEVC ID='burning rate22_02', QUANTITY='BURNING RATE', XYZ=0.59,0.545,0.7, IOR=2/
&DEVC ID='burning rate05', QUANTITY='BURNING RATE', XYZ=0.42,0.545,0.8, IOR=2/
&DEVC ID='burning rate5_03', QUANTITY='BURNING RATE', XYZ=0.42,0.545,0.8, IOR=2/
&DEVC ID='burning rate22_03', QUANTITY='BURNING RATE', XYZ=0.59,0.545,0.8, IOR=2/
&DEVC ID='burning rate07', QUANTITY='BURNING RATE', XYZ=0.42,0.545,0.9, IOR=2/
&DEVC ID='burning rate5_04', QUANTITY='BURNING RATE', XYZ=0.42,0.545,0.9, IOR=2/
&DEVC ID='burning rate22_04', QUANTITY='BURNING RATE', XYZ=0.59,0.545,0.9, IOR=2/
&DEVC ID='burning rate09', QUANTITY='BURNING RATE', XYZ=0.42,0.545,1.0, IOR=2/
&DEVC ID='burning rate5_05', QUANTITY='BURNING RATE', XYZ=0.42,0.545,1.0, IOR=2/
&DEVC ID='burning rate22_05', QUANTITY='BURNING RATE', XYZ=0.59,0.545,1.0, IOR=2/
&DEVC ID='burning rate11', QUANTITY='BURNING RATE', XYZ=0.42,0.545,1.1, IOR=2/
&DEVC ID='burning rate5_06', QUANTITY='BURNING RATE', XYZ=0.42,0.545,1.1, IOR=2/
&DEVC ID='burning rate22_06', QUANTITY='BURNING RATE', XYZ=0.59,0.545,1.1, IOR=2/
&DEVC ID='burning rate5_07', QUANTITY='BURNING RATE', XYZ=0.42,0.545,1.2, IOR=2/
&DEVC ID='burning rate22_07', QUANTITY='BURNING RATE', XYZ=0.59,0.545,1.2, IOR=2/
&DEVC ID='burning rate5_08', QUANTITY='BURNING RATE', XYZ=0.41,0.545,1.3, IOR=2/
&DEVC ID='burning rate22_08', QUANTITY='BURNING RATE', XYZ=0.58,0.545,1.3, IOR=2/
&DEVC ID='burning rate5_09', QUANTITY='BURNING RATE', XYZ=0.42,0.545,1.4, IOR=2/
&DEVC ID='burning rate22_09', QUANTITY='BURNING RATE', XYZ=0.59,0.545,1.4, IOR=2/
&DEVC ID='burning rate5_10', QUANTITY='BURNING RATE', XYZ=0.42,0.545,1.5, IOR=2/
&DEVC ID='burning rate22_10', QUANTITY='BURNING RATE', XYZ=0.59,0.545,1.5, IOR=2/
&DEVC ID='burning rate5_11', QUANTITY='BURNING RATE', XYZ=0.42,0.545,1.6, IOR=2/
&DEVC ID='burning rate22_11', QUANTITY='BURNING RATE', XYZ=0.59,0.545,1.6, IOR=2/
&DEVC ID='burning rate5_12', QUANTITY='BURNING RATE', XYZ=0.42,0.545,1.7, IOR=2/
&DEVC ID='burning rate22_12', QUANTITY='BURNING RATE', XYZ=0.59,0.545,1.7, IOR=2/

&DEVC ID='SOLID', PROP_ID='SOLID props', QUANTITY='GAUGE HEAT FLUX', XYZ=0.37,0.59,0.5, IOR=1/

&DEVC ID='SOLID01', PROP_ID='SOLID01 props', QUANTITY='GAUGE HEAT FLUX', XYZ=0.47,0.545,0.5, IOR=2/
&DEVC ID='SOLID02', PROP_ID='SOLID02 props', QUANTITY='GAUGE HEAT FLUX', XYZ=0.52,0.545,0.5, IOR=2/
&DEVC ID='SOLID03', PROP_ID='SOLID03 props', QUANTITY='GAUGE HEAT FLUX', XYZ=0.59,0.545,0.5, IOR=2/
&DEVC ID='SOLID04', PROP_ID='SOLID04 props', QUANTITY='GAUGE HEAT FLUX', XYZ=0.52,0.545,0.7, IOR=2/
&DEVC ID='SOLID05', PROP_ID='SOLID05 props', QUANTITY='GAUGE HEAT FLUX', XYZ=0.59,0.545,0.7, IOR=2/
&DEVC ID='SOLID06', PROP_ID='SOLID06 props', QUANTITY='GAUGE HEAT FLUX', XYZ=0.47,0.545,0.7, IOR=2/
&DEVC ID='SOLID07', PROP_ID='SOLID07 props', QUANTITY='GAUGE HEAT FLUX', XYZ=0.42,0.545,0.7, IOR=2/
&DEVC ID='SOLID08', PROP_ID='SOLID08 props', QUANTITY='GAUGE HEAT FLUX', XYZ=0.52,0.545,0.9, IOR=2/
&DEVC ID='SOLID09', PROP_ID='SOLID09 props', QUANTITY='GAUGE HEAT FLUX', XYZ=0.59,0.545,0.9, IOR=2/
&DEVC ID='SOLID10', PROP_ID='SOLID10 props', QUANTITY='GAUGE HEAT FLUX', XYZ=0.47,0.545,0.9, IOR=2/
&DEVC ID='SOLID11', PROP_ID='SOLID11 props', QUANTITY='GAUGE HEAT FLUX', XYZ=0.42,0.545,0.9, IOR=2/
&DEVC ID='SOLID12', PROP_ID='SOLID12 props', QUANTITY='GAUGE HEAT FLUX', XYZ=0.52,0.545,1.1, IOR=2/
&DEVC ID='SOLID13', PROP_ID='SOLID13 props', QUANTITY='GAUGE HEAT FLUX', XYZ=0.59,0.545,1.1, IOR=2/
&DEVC ID='SOLID14', PROP_ID='SOLID14 props', QUANTITY='GAUGE HEAT FLUX', XYZ=0.47,0.545,1.1, IOR=2/
&DEVC ID='SOLID15', PROP_ID='SOLID15 props', QUANTITY='GAUGE HEAT FLUX', XYZ=0.42,0.545,1.1, IOR=2/
&DEVC ID='SOLID16', PROP_ID='SOLID16 props', QUANTITY='GAUGE HEAT FLUX', XYZ=0.52,0.545,1.3, IOR=2/
&DEVC ID='SOLID17', PROP_ID='SOLID17 props', QUANTITY='GAUGE HEAT FLUX', XYZ=0.58,0.545,1.3, IOR=2/
&DEVC ID='SOLID18', PROP_ID='SOLID18 props', QUANTITY='GAUGE HEAT FLUX', XYZ=0.47,0.545,1.3, IOR=2/
&DEVC ID='SOLID19', PROP_ID='SOLID19 props', QUANTITY='GAUGE HEAT FLUX', XYZ=0.41,0.545,1.3, IOR=2/
&DEVC ID='SOLID20', PROP_ID='SOLID20 props', QUANTITY='GAUGE HEAT FLUX', XYZ=0.52,0.545,1.5, IOR=2/
! ... 35 like lines cut

&DEVC ID='GAS1', QUANTITY='TEMPERATURE', XYZ=0.42,0.545,0.7, ORIENTATION=0.0,1.0,0.0/
&DEVC ID='GAS01', QUANTITY='TEMPERATURE', XYZ=0.59,0.545,0.7, ORIENTATION=0.0,1.0,0.0/
&DEVC ID='GAS02', QUANTITY='TEMPERATURE', XYZ=0.59,0.585,0.7, ORIENTATION=0.0,1.0,0.0/
&DEVC ID='GAS03', QUANTITY='TEMPERATURE', XYZ=0.42,0.585,0.7, ORIENTATION=0.0,1.0,0.0/
&DEVC ID='GAS04', QUANTITY='TEMPERATURE', XYZ=0.59,0.625,0.7, ORIENTATION=0.0,1.0,0.0/
&DEVC ID='GAS05', QUANTITY='TEMPERATURE', XYZ=0.42,0.625,0.7, ORIENTATION=0.0,1.0,0.0/
&DEVC ID='GAS06', QUANTITY='TEMPERATURE', XYZ=0.59,0.665,0.7, ORIENTATION=0.0,1.0,0.0/
&DEVC ID='GAS07', QUANTITY='TEMPERATURE', XYZ=0.42,0.665,0.7, ORIENTATION=0.0,1.0,0.0/
&DEVC ID='GAS08', QUANTITY='TEMPERATURE', XYZ=0.59,0.705,0.7, ORIENTATION=0.0,1.0,0.0/
&DEVC ID='GAS09', QUANTITY='TEMPERATURE', XYZ=0.42,0.705,0.7, ORIENTATION=0.0,1.0,0.0/
&DEVC ID='GAS10', QUANTITY='TEMPERATURE', XYZ=0.59,0.745,0.7, ORIENTATION=0.0,1.0,0.0/
&DEVC ID='GAS11', QUANTITY='TEMPERATURE', XYZ=0.42,0.745,0.7, ORIENTATION=0.0,1.0,0.0/
&DEVC ID='GAS12', QUANTITY='TEMPERATURE', XYZ=0.59,0.785,0.7, ORIENTATION=0.0,1.0,0.0/
&DEVC ID='GAS13', QUANTITY='TEMPERATURE', XYZ=0.42,0.785,0.7, ORIENTATION=0.0,1.0,0.0/
&DEVC ID='GAS14', QUANTITY='TEMPERATURE', XYZ=0.59,0.825,0.7, ORIENTATION=0.0,1.0,0.0/
&DEVC ID='GAS15', QUANTITY='TEMPERATURE', XYZ=0.42,0.825,0.7, ORIENTATION=0.0,1.0,0.0/
&DEVC ID='GAS16', QUANTITY='TEMPERATURE', XYZ=0.59,0.865,0.7, ORIENTATION=0.0,1.0,0.0/
&DEVC ID='GAS17', QUANTITY='TEMPERATURE', XYZ=0.42,0.865,0.7, ORIENTATION=0.0,1.0,0.0/
&DEVC ID='GAS18', QUANTITY='TEMPERATURE', XYZ=0.59,0.905,0.7, ORIENTATION=0.0,1.0,0.0/
&DEVC ID='GAS19', QUANTITY='TEMPERATURE', XYZ=0.42,0.905,0.7, ORIENTATION=0.0,1.0,0.0/
! ... 24 like lines cut

&DEVC ID='velocity', QUANTITY='W-VELOCITY', XYZ=0.42,0.545,0.7/
&DEVC ID='velocity01', QUANTITY='W-VELOCITY', XYZ=0.59,0.545,0.7/
&DEVC ID='velocity02', QUANTITY='W-VELOCITY', XYZ=0.42,0.585,0.7/
&DEVC ID='velocity03', QUANTITY='W-VELOCITY', XYZ=0.59,0.585,0.7/
&DEVC ID='velocity04', QUANTITY='W-VELOCITY', XYZ=0.42,0.625,0.7/
&DEVC ID='velocity05', QUANTITY='W-VELOCITY', XYZ=0.59,0.625,0.7/
&DEVC ID='velocity06', QUANTITY='W-VELOCITY', XYZ=0.42,0.665,0.7/
&DEVC ID='velocity07', QUANTITY='W-VELOCITY', XYZ=0.59,0.665,0.7/
&DEVC ID='velocity08', QUANTITY='W-VELOCITY', XYZ=0.42,0.705,0.7/
&DEVC ID='velocity09', QUANTITY='W-VELOCITY', XYZ=0.59,0.705,0.7/
&DEVC ID='velocity10', QUANTITY='W-VELOCITY', XYZ=0.42,0.745,0.7/
&DEVC ID='velocity11', QUANTITY='W-VELOCITY', XYZ=0.59,0.745,0.7/
&DEVC ID='velocity12', QUANTITY='W-VELOCITY', XYZ=0.42,0.785,0.7/
&DEVC ID='velocity13', QUANTITY='W-VELOCITY', XYZ=0.59,0.785,0.7/
&DEVC ID='velocity14', QUANTITY='W-VELOCITY', XYZ=0.42,0.825,0.7/
&DEVC ID='velocity15', QUANTITY='W-VELOCITY', XYZ=0.59,0.825,0.7/
&DEVC ID='velocity16', QUANTITY='W-VELOCITY', XYZ=0.42,0.865,0.7/
&DEVC ID='velocity17', QUANTITY='W-VELOCITY', XYZ=0.59,0.865,0.7/
&DEVC ID='velocity18', QUANTITY='W-VELOCITY', XYZ=0.42,0.905,0.7/
&DEVC ID='velocity19', QUANTITY='W-VELOCITY', XYZ=0.59,0.905,0.7/
&DEVC ID='velocity20', QUANTITY='W-VELOCITY', XYZ=0.42,0.945,0.7/
! ... 23 like lines cut



&BNDF QUANTITY='GAS TEMPERATURE',CELL_CENTERED=T/
&BNDF QUANTITY='GAUGE HEAT FLUX',CELL_CENTERED=T/
&BNDF QUANTITY='WALL TEMPERATURE',CELL_CENTERED=T/
&BNDF QUANTITY='BURNING RATE',CELL_CENTERED=T/
&BNDF QUANTITY='HEAT TRANSFER COEFFICIENT',CELL_CENTERED=T/
&BNDF QUANTITY='RADIATIVE HEAT FLUX',CELL_CENTERED=T/
&BNDF QUANTITY='CONVECTIVE HEAT FLUX',CELL_CENTERED=T/
&BNDF QUANTITY='INCIDENT HEAT FLUX',CELL_CENTERED=T/
&BNDF QUANTITY='NET HEAT FLUX',CELL_CENTERED=T/
&BNDF QUANTITY='SURFACE DENSITY',MATL_ID='PMMA',CELL_CENTERED=T/

&ISOF QUANTITY='HRRPUV', VALUE=200.0/

&SLCF QUANTITY='TEMPERATURE', CELL_CENTERED=.TRUE., ID='X = 0.42 m: Temperature', PBX=0.42/
&SLCF QUANTITY='HRRPUV', CELL_CENTERED=.TRUE., ID='X = 0.42 m: Heat Release Rate per Unit Volume', PBX=0.42/
&SLCF QUANTITY='VELOCITY', CELL_CENTERED=.TRUE., ID='X = 0.42 m: Velocity', PBX=0.42/

&SLCF QUANTITY='TEMPERATURE', CELL_CENTERED=.TRUE., ID='X = 0.5 m: Temperature', PBX=0.5/
&SLCF QUANTITY='HRRPUV', CELL_CENTERED=.TRUE., ID='X = 0.5 m: Heat Release Rate per Unit Volume', PBX=0.5/
&SLCF QUANTITY='VELOCITY', CELL_CENTERED=.TRUE., ID='X = 0.5 m: Velocity', PBX=0.5/

&SLCF QUANTITY='TEMPERATURE', CELL_CENTERED=.TRUE., ID='Y = 0.595 m: Temperature', PBY=0.585/
&SLCF QUANTITY='HRRPUV', CELL_CENTERED=.TRUE., ID='Y = 0.595 m: Heat Release Rate per Unit Volume', PBY=0.585/
&SLCF QUANTITY='VELOCITY', CELL_CENTERED=.TRUE., ID='Y = 0.595 m: Velocity', PBY=0.585/

&SLCF QUANTITY='TEMPERATURE', CELL_CENTERED=.TRUE., ID='Y = 0.695 m: Temperature', PBY=0.695/
&SLCF QUANTITY='HRRPUV', CELL_CENTERED=.TRUE., ID='Y = 0.695 m: Heat Release Rate per Unit Volume', PBY=0.695/
&SLCF QUANTITY='VELOCITY', CELL_CENTERED=.TRUE., ID='Y = 0.695 m: Velocity', PBY=0.695/


&DEVC ID='GAS', QUANTITY='RADIATIVE HEAT FLUX GAS', XYZ=1.05,1.225,0.5, ORIENTATION=-0.707,-0.707,0.0/
&DEVC ID='GAS44', QUANTITY='RADIATIVE HEAT FLUX GAS', XYZ=1.05,1.225,0.7, ORIENTATION=-0.707,-0.707,0.0/
&DEVC ID='GAS45', QUANTITY='RADIATIVE HEAT FLUX GAS', XYZ=1.05,1.225,0.9, ORIENTATION=-0.707,-0.707,0.0/
&DEVC ID='GAS46', QUANTITY='RADIATIVE HEAT FLUX GAS', XYZ=1.05,1.225,1.1, ORIENTATION=-0.707,-0.707,0.0/
&DEVC ID='GAS47', QUANTITY='RADIATIVE HEAT FLUX GAS', XYZ=1.05,1.225,1.3, ORIENTATION=-0.707,-0.707,0.0/
&DEVC ID='GAS48', QUANTITY='RADIATIVE HEAT FLUX GAS', XYZ=1.05,1.225,1.5, ORIENTATION=-0.707,-0.707,0.0/
&DEVC ID='GAS49', QUANTITY='RADIATIVE HEAT FLUX GAS', XYZ=1.05,1.225,1.7, ORIENTATION=-0.707,-0.707,0.0/


&DEVC ID='GASE1', QUANTITY='GAUGE HEAT FLUX GAS', XYZ=1.05,1.225,0.5, ORIENTATION=-0.707,-0.707,0.0/
&DEVC ID='GAS44E1', QUANTITY='GAUGE HEAT FLUX GAS', XYZ=1.05,1.225,0.7, ORIENTATION=-0.707,-0.707,0.0/
&DEVC ID='GAS45E1', QUANTITY='GAUGE HEAT FLUX GAS', XYZ=1.05,1.225,0.9, ORIENTATION=-0.707,-0.707,0.0/
&DEVC ID='GAS45E1', QUANTITY='GAUGE HEAT FLUX GAS', XYZ=1.05,1.225,1.1, ORIENTATION=-0.707,-0.707,0.0/
&DEVC ID='GAS46E1', QUANTITY='GAUGE HEAT FLUX GAS', XYZ=1.05,1.225,1.3, ORIENTATION=-0.707,-0.707,0.0/
&DEVC ID='GAS47E1', QUANTITY='GAUGE HEAT FLUX GAS', XYZ=1.05,1.225,1.3, ORIENTATION=-0.707,-0.707,0.0/
&DEVC ID='GAS48E1', QUANTITY='GAUGE HEAT FLUX GAS', XYZ=1.05,1.225,1.5, ORIENTATION=-0.707,-0.707,0.0/
&DEVC ID='GAS49E1', QUANTITY='GAUGE HEAT FLUX GAS', XYZ=1.05,1.225,1.7, ORIENTATION=-0.707,-0.707,0.0/



&DEVC ID='BURNING_RATE_x5_105', QUANTITY='BURNING RATE', XBP=0.42,0.42,0.545,0.545,0.36,1.82, POINTS=147, STATISTICS_START=104.5, STATISTICS_END=105.5,IOR=2/
&DEVC ID='BURNING_RATE_x5_145', QUANTITY='BURNING RATE', XBP=0.42,0.42,0.545,0.545,0.36,1.82, POINTS=147, STATISTICS_START=144.5, STATISTICS_END=145.5,IOR=2/
&DEVC ID='BURNING_RATE_x5_185', QUANTITY='BURNING RATE', XBP=0.42,0.42,0.545,0.545,0.36,1.82, POINTS=147, STATISTICS_START=184.5, STATISTICS_END=185.5,IOR=2/

&DEVC ID='BURNING_RATE_x22_105', QUANTITY='BURNING RATE', XBP=0.59,0.59,0.545,0.545,0.36,1.82, POINTS=147, STATISTICS_START=104.5, STATISTICS_END=105.5,IOR=2/
&DEVC ID='BURNING_RATE_x22_145', QUANTITY='BURNING RATE', XBP=0.59,0.59,0.545,0.545,0.36,1.82, POINTS=147, STATISTICS_START=144.5, STATISTICS_END=145.5,IOR=2/
&DEVC ID='BURNING_RATE_x22_185', QUANTITY='BURNING RATE', XBP=0.59,0.59,0.545,0.545,0.36,1.82, POINTS=147, STATISTICS_START=184.5, STATISTICS_END=185.5,IOR=2/

&DEVC QUANTITY='WALL TEMPERATURE',XB=0.42,0.42,0.545,0.545,0.36,1.82,POINTS=147,STATISTICS_START=104.5,STATISTICS_END=105.5,IOR=2,ID='WALL_TEMPERATURE_x5_105'/
&DEVC QUANTITY='WALL TEMPERATURE',XB=0.42,0.42,0.545,0.545,0.36,1.82,POINTS=147,STATISTICS_START=144.5,STATISTICS_END=145.5,IOR=2,ID='WALL_TEMPERATURE_x5_145'/
&DEVC QUANTITY='WALL TEMPERATURE',XB=0.42,0.42,0.545,0.545,0.36,1.82,POINTS=147,STATISTICS_START=184.5,STATISTICS_END=185.5,IOR=2,ID='WALL_TEMPERATURE_x5_185'/

&DEVC QUANTITY='WALL TEMPERATURE',XB=0.59,0.59,0.545,0.545,0.36,1.82, POINTS=147,STATISTICS_START=104.5,STATISTICS_END=105.5,IOR=2,ID='WALL_TEMPERATURE_x22_105'/
&DEVC QUANTITY='WALL TEMPERATURE',XB=0.59,0.59,0.545,0.545,0.36,1.82, POINTS=147,STATISTICS_START=144.5,STATISTICS_END=145.5,IOR=2,ID='WALL_TEMPERATURE_x22_145'/
&DEVC QUANTITY='WALL TEMPERATURE',XB=0.59,0.59,0.545,0.545,0.36,1.82, POINTS=147,STATISTICS_START=184.5,STATISTICS_END=185.5,IOR=2,ID='WALL_TEMPERATURE_x22_185'/

&DEVC QUANTITY='NET HEAT FLUX',XB=0.42,0.42,0.545,0.545,0.36,1.82, POINTS=147,STATISTICS_START=104.5,STATISTICS_END=105.5,IOR=2,ID='NET_HEAT_FLUX_x5_105'/
&DEVC QUANTITY='NET HEAT FLUX',XB=0.42,0.42,0.545,0.545,0.36,1.82, POINTS=147,STATISTICS_START=144.5,STATISTICS_END=145.5,IOR=2,ID='NET_HEAT_FLUX_x5_145'/
&DEVC QUANTITY='NET HEAT FLUX',XB=0.42,0.42,0.545,0.545,0.36,1.82, POINTS=147,STATISTICS_START=184.5,STATISTICS_END=185.5,IOR=2,ID='NET_HEAT_FLUX_x5_185'/

&DEVC QUANTITY='NET HEAT FLUX',XB=0.59,0.59,0.545,0.545,0.36,1.82,POINTS=147,STATISTICS_START=104.5,STATISTICS_END=105.5,IOR=2,ID='NET_HEAT_FLUX_x22_105'/
&DEVC QUANTITY='NET HEAT FLUX',XB=0.59,0.59,0.545,0.545,0.36,1.82,POINTS=147,STATISTICS_START=144.5,STATISTICS_END=145.5,IOR=2,ID='NET_HEAT_FLUX_x22_145'/
&DEVC QUANTITY='NET HEAT FLUX',XB=0.59,0.59,0.545,0.545,0.36,1.82,POINTS=147,STATISTICS_START=184.5,STATISTICS_END=185.5,IOR=2,ID='NET_HEAT_FLUX_x22_185'/

&DEVC QUANTITY='RADIATIVE HEAT FLUX',XB=0.42,0.42,0.545,0.545,0.36,1.82,POINTS=147,STATISTICS_START=104.5,STATISTICS_END=105.5,IOR=2,ID='RADIATIVE_HEAT_FLUX_x5_105'/
&DEVC QUANTITY='RADIATIVE HEAT FLUX',XB=0.42,0.42,0.545,0.545,0.36,1.82,POINTS=147,STATISTICS_START=144.5,STATISTICS_END=145.5,IOR=2,ID='RADIATIVE_HEAT_FLUX_x5_145'/
&DEVC QUANTITY='RADIATIVE HEAT FLUX',XB=0.42,0.42,0.545,0.545,0.36,1.82,POINTS=147,STATISTICS_START=184.5,STATISTICS_END=185.5,IOR=2,ID='RADIATIVE_HEAT_FLUX_x5_185'/

&DEVC QUANTITY='RADIATIVE HEAT FLUX',XB=0.59,0.59,0.545,0.545,0.36,1.82,POINTS=147,STATISTICS_START=104.5,STATISTICS_END=105.5,IOR=2,ID='RADIATIVE_HEAT_FLUX_x22_105'/
&DEVC QUANTITY='RADIATIVE HEAT FLUX',XB=0.59,0.59,0.545,0.545,0.36,1.82,POINTS=147,STATISTICS_START=144.5,STATISTICS_END=145.5,IOR=2,ID='RADIATIVE_HEAT_FLUX_x22_145'/
&DEVC QUANTITY='RADIATIVE HEAT FLUX',XB=0.59,0.59,0.545,0.545,0.36,1.82,POINTS=147,STATISTICS_START=184.5,STATISTICS_END=185.5,IOR=2,ID='RADIATIVE_HEAT_FLUX_x22_185'/

&DEVC QUANTITY='CONVECTIVE HEAT FLUX',XB=0.42,0.42,0.545,0.545,0.36,1.82,POINTS=147,STATISTICS_START=104.5,STATISTICS_END=105.5,IOR=2,ID='CONVECTIVE_HEAT_FLUX_x5_105'/
&DEVC QUANTITY='CONVECTIVE HEAT FLUX',XB=0.42,0.42,0.545,0.545,0.36,1.82,POINTS=147,STATISTICS_START=144.5,STATISTICS_END=145.5,IOR=2,ID='CONVECTIVE_HEAT_FLUX_x5_145'/
&DEVC QUANTITY='CONVECTIVE HEAT FLUX',XB=0.42,0.42,0.545,0.545,0.36,1.82,POINTS=147,STATISTICS_START=184.5,STATISTICS_END=185.5,IOR=2,ID='CONVECTIVE_HEAT_FLUX_x5_185'/

&DEVC QUANTITY='CONVECTIVE HEAT FLUX',XB=0.59,0.59,0.545,0.545,0.36,1.82,POINTS=147,STATISTICS_START=104.5,STATISTICS_END=105.5,IOR=2,ID='CONVECTIVE_HEAT_FLUX_x22_105'/
&DEVC QUANTITY='CONVECTIVE HEAT FLUX',XB=0.59,0.59,0.545,0.545,0.36,1.82,POINTS=147,STATISTICS_START=144.5,STATISTICS_END=145.5,IOR=2,ID='CONVECTIVE_HEAT_FLUX_x22_145'/
&DEVC QUANTITY='CONVECTIVE HEAT FLUX',XB=0.59,0.59,0.545,0.545,0.36,1.82,POINTS=147,STATISTICS_START=184.5,STATISTICS_END=185.5,IOR=2,ID='CONVECTIVE_HEAT_FLUX_x22_185'/

&DEVC ID='BURNING_RATE_Y5_105', QUANTITY='BURNING RATE', XBP=0.37,0.37,0.59,0.59,0.36,1.82, POINTS=147, STATISTICS_START=104.5, STATISTICS_END=105.5,IOR=1/
&DEVC ID='BURNING_RATE_Y5_145', QUANTITY='BURNING RATE', XBP=0.37,0.37,0.59,0.59,0.36,1.82, POINTS=147, STATISTICS_START=144.5, STATISTICS_END=145.5,IOR=1/
&DEVC ID='BURNING_RATE_Y5_185', QUANTITY='BURNING RATE', XBP=0.37,0.37,0.59,0.59,0.36,1.82, POINTS=147, STATISTICS_START=184.5, STATISTICS_END=185.5,IOR=1/

&DEVC ID='BURNING_RATE_Y22_105', QUANTITY='BURNING RATE', XBP=0.37,0.37,0.76,0.76,0.36,1.82, POINTS=147, STATISTICS_START=104.5, STATISTICS_END=105.5,IOR=1/
&DEVC ID='BURNING_RATE_Y22_145', QUANTITY='BURNING RATE', XBP=0.37,0.37,0.76,0.76,0.36,1.82, POINTS=147, STATISTICS_START=144.5, STATISTICS_END=145.5,IOR=1/
&DEVC ID='BURNING_RATE_Y22_185', QUANTITY='BURNING RATE', XBP=0.37,0.37,0.76,0.76,0.36,1.82, POINTS=147, STATISTICS_START=184.5, STATISTICS_END=185.5,IOR=1/

&DEVC QUANTITY='WALL TEMPERATURE',XB=0.37,0.37,0.59,0.59,0.36,1.82,POINTS=147,STATISTICS_START=104.5,STATISTICS_END=105.5,IOR=1,ID='WALL_TEMPERATURE_Y5_105'/
&DEVC QUANTITY='WALL TEMPERATURE',XB=0.37,0.37,0.59,0.59,0.36,1.82,POINTS=147,STATISTICS_START=144.5,STATISTICS_END=145.5,IOR=1,ID='WALL_TEMPERATURE_Y5_145'/
&DEVC QUANTITY='WALL TEMPERATURE',XB=0.37,0.37,0.59,0.59,0.36,1.82,POINTS=147,STATISTICS_START=184.5,STATISTICS_END=185.5,IOR=1,ID='WALL_TEMPERATURE_Y5_185'/

&DEVC QUANTITY='WALL TEMPERATURE',XB=0.37,0.37,0.76,0.76,0.36,1.82,POINTS=147,STATISTICS_START=104.5,STATISTICS_END=105.5,IOR=1,ID='WALL_TEMPERATURE_Y22_105'/
&DEVC QUANTITY='WALL TEMPERATURE',XB=0.37,0.37,0.76,0.76,0.36,1.82,POINTS=147,STATISTICS_START=144.5,STATISTICS_END=145.5,IOR=1,ID='WALL_TEMPERATURE_Y22_145'/
&DEVC QUANTITY='WALL TEMPERATURE',XB=0.37,0.37,0.76,0.76,0.36,1.82,POINTS=147,STATISTICS_START=184.5,STATISTICS_END=185.5,IOR=1,ID='WALL_TEMPERATURE_Y22_185'/

&DEVC QUANTITY='NET HEAT FLUX',XB=0.37,0.37,0.59,0.59,0.36,1.82,POINTS=147,STATISTICS_START=104.5,STATISTICS_END=105.5,IOR=1,ID='NET_HEAT_FLUX_Y5_105'/
&DEVC QUANTITY='NET HEAT FLUX',XB=0.37,0.37,0.59,0.59,0.36,1.82,POINTS=147,STATISTICS_START=144.5,STATISTICS_END=145.5,IOR=1,ID='NET_HEAT_FLUX_Y5_145'/
&DEVC QUANTITY='NET HEAT FLUX',XB=0.37,0.37,0.59,0.59,0.36,1.82,POINTS=147,STATISTICS_START=184.5,STATISTICS_END=185.5,IOR=1,ID='NET_HEAT_FLUX_Y5_185'/

&DEVC QUANTITY='NET HEAT FLUX',XB=0.37,0.37,0.76,0.76,0.36,1.82,POINTS=147,STATISTICS_START=104.5,STATISTICS_END=105.5,IOR=1,ID='NET_HEAT_FLUX_Y22_105'/
&DEVC QUANTITY='NET HEAT FLUX',XB=0.37,0.37,0.76,0.76,0.36,1.82,POINTS=147,STATISTICS_START=144.5,STATISTICS_END=145.5,IOR=1,ID='NET_HEAT_FLUX_Y22_145'/
&DEVC QUANTITY='NET HEAT FLUX',XB=0.37,0.37,0.76,0.76,0.36,1.82,POINTS=147,STATISTICS_START=184.5,STATISTICS_END=185.5,IOR=1,ID='NET_HEAT_FLUX_Y22_185'/

&DEVC QUANTITY='RADIATIVE HEAT FLUX',XB=0.37,0.37,0.59,0.59,0.36,1.82,POINTS=147,STATISTICS_START=104.5,STATISTICS_END=105.5,IOR=1,ID='RADIATIVE_HEAT_FLUX_Y5_105'/
&DEVC QUANTITY='RADIATIVE HEAT FLUX',XB=0.37,0.37,0.59,0.59,0.36,1.82,POINTS=147,STATISTICS_START=144.5,STATISTICS_END=145.5,IOR=1,ID='RADIATIVE_HEAT_FLUX_Y5_145'/
&DEVC QUANTITY='RADIATIVE HEAT FLUX',XB=0.37,0.37,0.59,0.59,0.36,1.82,POINTS=147,STATISTICS_START=184.5,STATISTICS_END=185.5,IOR=1,ID='RADIATIVE_HEAT_FLUX_Y5_185'/

&DEVC QUANTITY='RADIATIVE HEAT FLUX',XB=0.37,0.37,0.76,0.76,0.36,1.82,POINTS=147,STATISTICS_START=104.5,STATISTICS_END=105.5,IOR=1,ID='RADIATIVE_HEAT_FLUX_Y22_105'/
&DEVC QUANTITY='RADIATIVE HEAT FLUX',XB=0.37,0.37,0.76,0.76,0.36,1.82,POINTS=147,STATISTICS_START=144.5,STATISTICS_END=145.5,IOR=1,ID='RADIATIVE_HEAT_FLUX_Y22_145'/
&DEVC QUANTITY='RADIATIVE HEAT FLUX',XB=0.37,0.37,0.76,0.76,0.36,1.82,POINTS=147,STATISTICS_START=184.5,STATISTICS_END=185.5,IOR=1,ID='RADIATIVE_HEAT_FLUX_Y22_185'/

&DEVC QUANTITY='CONVECTIVE HEAT FLUX',XB=0.37,0.37,0.59,0.59,0.36,1.82,POINTS=147,STATISTICS_START=104.5,STATISTICS_END=105.5,IOR=1,ID='CONVECTIVE_HEAT_FLUX_Y5_105'/
&DEVC QUANTITY='CONVECTIVE HEAT FLUX',XB=0.37,0.37,0.59,0.59,0.36,1.82,POINTS=147,STATISTICS_START=144.5,STATISTICS_END=145.5,IOR=1,ID='CONVECTIVE_HEAT_FLUX_Y5_145'/
&DEVC QUANTITY='CONVECTIVE HEAT FLUX',XB=0.37,0.37,0.59,0.59,0.36,1.82,POINTS=147,STATISTICS_START=184.5,STATISTICS_END=185.5,IOR=1,ID='CONVECTIVE_HEAT_FLUX_Y5_185'/

&DEVC QUANTITY='CONVECTIVE HEAT FLUX',XB=0.37,0.37,0.76,0.76,0.36,1.82,POINTS=147,STATISTICS_START=104.5,STATISTICS_END=105.5,IOR=1,ID='CONVECTIVE_HEAT_FLUX_Y22_105'/
&DEVC QUANTITY='CONVECTIVE HEAT FLUX',XB=0.37,0.37,0.76,0.76,0.36,1.82,POINTS=147,STATISTICS_START=144.5,STATISTICS_END=145.5,IOR=1,ID='CONVECTIVE_HEAT_FLUX_Y22_145'/
&DEVC QUANTITY='CONVECTIVE HEAT FLUX',XB=0.37,0.37,0.76,0.76,0.36,1.82,POINTS=147,STATISTICS_START=184.5,STATISTICS_END=185.5,IOR=1,ID='CONVECTIVE_HEAT_FLUX_Y22_185'/

&DEVC QUANTITY='TEMPERATURE',XB=0.42,0.42,0.545,1.225,0.70,0.70,POINTS=68,STATISTICS_START=104.5,STATISTICS_END=105.5,IOR=2,ID='TEMPERATURE_x5_30'/
&DEVC QUANTITY='TEMPERATURE',XB=0.45,0.45,0.545,1.225,1.3,1.3,POINTS=68,STATISTICS_START=104.5,STATISTICS_END=105.5,IOR=2,ID='TEMPERATURE_x5_90'/
&DEVC QUANTITY='TEMPERATURE',XB=0.59,0.59,0.545,1.225,0.70,0.70,POINTS=68,STATISTICS_START=104.5,STATISTICS_END=105.5,IOR=2,ID='TEMPERATURE_x22_30'/
&DEVC QUANTITY='TEMPERATURE',XB=0.59,0.59,0.545,1.225,1.3,1.3,POINTS=68,STATISTICS_START=104.5,STATISTICS_END=105.5,IOR=2,ID='TEMPERATURE_x22_90'/


&DEVC QUANTITY='TEMPERATURE',XB=0.42,0.42,0.545,1.225,0.70,0.70,POINTS=68,STATISTICS_START=104,STATISTICS_END=106,TEMPORAL_STATISTIC='RMS',IOR=2,ID='TEMPERATURE_RMS_x5_30'/
&DEVC QUANTITY='TEMPERATURE',XB=0.42,0.42,0.545,1.225,1.3,1.3,POINTS=68,STATISTICS_START=104,STATISTICS_END=106,TEMPORAL_STATISTIC='RMS',IOR=2,ID='TEMPERATURE_RMS_x5_90'/
&DEVC QUANTITY='TEMPERATURE',XB=0.59,0.59,0.545,1.225,0.70,0.70,POINTS=68,STATISTICS_START=104,STATISTICS_END=106,TEMPORAL_STATISTIC='RMS',IOR=2,ID='TEMPERATURE_RMS_x22_30'/
&DEVC QUANTITY='TEMPERATURE',XB=0.59,0.59,0.545,1.225,1.3,1.3,POINTS=68,STATISTICS_START=104,STATISTICS_END=106,TEMPORAL_STATISTIC='RMS',IOR=2,ID='TEMPERATURE_RMS_x22_90'/

&DEVC QUANTITY='W-VELOCITY',XB=0.42,0.42,0.545,1.225,0.70,0.70,POINTS=68,STATISTICS_START=104.5,STATISTICS_END=105.5,IOR=2,ID='W-VELOCITY_x5_30'/
&DEVC QUANTITY='W-VELOCITY',XB=0.42,0.42,0.545,1.225,1.3,1.3,POINTS=68,STATISTICS_START=104.5,STATISTICS_END=105.5,IOR=2,ID='W-VELOCITY_x5_90'/
&DEVC QUANTITY='W-VELOCITY',XB=0.59,0.59,0.545,1.225,0.70,0.70,POINTS=68,STATISTICS_START=104.5,STATISTICS_END=105.5,IOR=2,ID='W-VELOCITY_x22_30'/
&DEVC QUANTITY='W-VELOCITY',XB=0.59,0.59,0.545,1.225,1.3,1.3,POINTS=68,STATISTICS_START=104.5,STATISTICS_END=105.5,IOR=2,ID='W-VELOCITY_x22_90'/


&DEVC QUANTITY='W-VELOCITY',XB=0.42,0.42,0.545,1.225,0.70,0.70,POINTS=68,STATISTICS_START=104,STATISTICS_END=106,TEMPORAL_STATISTIC='RMS',IOR=2,ID='W-VELOCITY_RMS_x5_30'/
&DEVC QUANTITY='W-VELOCITY',XB=0.42,0.42,0.545,1.225,1.3,1.3,POINTS=68,STATISTICS_START=104,STATISTICS_END=106,TEMPORAL_STATISTIC='RMS',IOR=2,ID='W-VELOCITY_RMS_x5_90'/
&DEVC QUANTITY='W-VELOCITY',XB=0.59,0.59,0.545,1.225,0.70,0.70,POINTS=68,STATISTICS_START=104,STATISTICS_END=106,TEMPORAL_STATISTIC='RMS',IOR=2,ID='W-VELOCITY_RMS_x22_30'/
&DEVC QUANTITY='W-VELOCITY',XB=0.59,0.59,0.545,1.225,1.3,1.3,POINTS=68,STATISTICS_START=104,STATISTICS_END=106,TEMPORAL_STATISTIC='RMS',IOR=2,ID='W-VELOCITY_RMS_x22_90'/


&DEVC QUANTITY='TEMPERATURE',XB=0.42,0.42,0.545,1.225,0.70,0.70,POINTS=68,STATISTICS_START=104.5,STATISTICS_END=105.5,IOR=1,ID='TEMPERATURE_Y5_30'/
&DEVC QUANTITY='TEMPERATURE',XB=0.42,0.42,0.545,1.225,1.3,1.3,POINTS=68,STATISTICS_START=104.5,STATISTICS_END=105.5,IOR=1,ID='TEMPERATURE_Y5_90'/
&DEVC QUANTITY='TEMPERATURE',XB=0.59,0.59,0.545,1.225,0.70,0.70,POINTS=68,STATISTICS_START=104.5,STATISTICS_END=105.5,IOR=1,ID='TEMPERATURE_Y22_30'/
&DEVC QUANTITY='TEMPERATURE',XB=0.59,0.59,0.545,1.225,1.3,1.3,POINTS=68,STATISTICS_START=104.5,STATISTICS_END=105.5,IOR=1,ID='TEMPERATURE_Y22_90'/


&DEVC QUANTITY='TEMPERATURE',XB=0.42,0.42,0.545,1.225,0.70,0.70,POINTS=68,STATISTICS_START=104,STATISTICS_END=106,TEMPORAL_STATISTIC='RMS',IOR=1,ID='TEMPERATURE_RMS_Y5_30'/
&DEVC QUANTITY='TEMPERATURE',XB=0.42,0.42,0.545,1.225,1.3,1.3,POINTS=68,STATISTICS_START=104,STATISTICS_END=106,TEMPORAL_STATISTIC='RMS',IOR=1,ID='TEMPERATURE_RMS_Y5_90'/
&DEVC QUANTITY='TEMPERATURE',XB=0.59,0.59,0.545,1.225,0.70,0.70,POINTS=68,STATISTICS_START=104,STATISTICS_END=106,TEMPORAL_STATISTIC='RMS',IOR=1,ID='TEMPERATURE_RMS_Y22_30'/
&DEVC QUANTITY='TEMPERATURE',XB=0.59,0.59,0.545,1.225,1.3,1.3,POINTS=68,STATISTICS_START=104,STATISTICS_END=106,TEMPORAL_STATISTIC='RMS',IOR=1,ID='TEMPERATURE_RMS_Y22_90'/

&DEVC QUANTITY='W-VELOCITY',XB=0.42,0.42,0.545,1.225,0.70,0.70,POINTS=68,STATISTICS_START=104.5,STATISTICS_END=105.5,IOR=1,ID='W-VELOCITY_Y5_30'/
&DEVC QUANTITY='W-VELOCITY',XB=0.42,0.42,0.545,1.225,1.3,1.3,POINTS=68,STATISTICS_START=104.5,STATISTICS_END=105.5,IOR=1,ID='W-VELOCITY_Y5_90'/
&DEVC QUANTITY='W-VELOCITY',XB=0.59,0.59,0.545,1.225,0.70,0.70,POINTS=68,STATISTICS_START=104.5,STATISTICS_END=105.5,IOR=1,ID='W-VELOCITY_Y22_30'/
&DEVC QUANTITY='W-VELOCITY',XB=0.59,0.59,0.545,1.225,1.3,1.3,POINTS=68,STATISTICS_START=104.5,STATISTICS_END=105.5,IOR=1,ID='W-VELOCITY_Y22_90'/


&DEVC QUANTITY='W-VELOCITY',XB=0.41,0.41,0.54,1.22,0.70,0.70,POINTS=68,STATISTICS_START=104,STATISTICS_END=106,TEMPORAL_STATISTIC='RMS',IOR=1,ID='W-VELOCITY_RMS_Y5_30'/
&DEVC QUANTITY='W-VELOCITY',XB=0.42,0.42,0.545,1.225,1.3,1.3,POINTS=68,STATISTICS_START=104,STATISTICS_END=106,TEMPORAL_STATISTIC='RMS',IOR=1,ID='W-VELOCITY_RMS_Y5_90'/
&DEVC QUANTITY='W-VELOCITY',XB=0.59,0.59,0.545,1.225,0.70,0.70,POINTS=68,STATISTICS_START=104,STATISTICS_END=106,TEMPORAL_STATISTIC='RMS',IOR=1,ID='W-VELOCITY_RMS_Y22_30'/
&DEVC QUANTITY='W-VELOCITY',XB=0.59,0.59,0.545,1.225,1.3,1.3,POINTS=68,STATISTICS_START=104,STATISTICS_END=106,TEMPORAL_STATISTIC='RMS',IOR=1,ID='W-VELOCITY_RMS_Y22_90'/

&TAIL /
