&HEAD CHID='v1_20230919'/
&TIME T_END=200.0, DT=0.01, WALL_INCREMENT=1/
&DUMP DT_RESTART=5.0/

&MESH ID='Mesh01-02', IJK=106,106,61, XB=-0.32,1.8,-0.32,1.8,1.82,3.04/
&MESH ID='Mesh01-01-01', IJK=106,41,82, XB=-0.32,1.8,-0.32,0.5,0.18,1.82/
&MESH ID='Mesh01-01-02-02', IJK=106,28,82, XB=-0.32,1.8,1.24,1.8,0.18,1.82/
&MESH ID='Mesh01-01-02-01-01', IJK=32,37,82, XB=-0.32,0.32,0.5,1.24,0.18,1.82/
&MESH ID='Mesh01-01-02-01-02-02', IJK=37,37,82, XB=1.06,1.8,0.5,1.24,0.18,1.82/
&MESH ID='Mesh01-01-02-01-02-01', IJK=74,74,164, XB=0.32,1.06,0.5,1.24,0.18,1.82/

&RADI NUMBER_RADIATION_ANGLES=300/ 

%%%&REAC ID='PROPANE',FUEL='PROPANE', SOOT_YIELD=0.015/

&REAC ID='MMA', FUEL='MMA',SOOT_YIELD=0.018,HEAT_OF_COMBUSTION=2.41E+4/

&SPEC ID='MMA', FORMULA='C5O2H8', RADCAL_ID='MMA', RAMP_CP='MMA_SPECIFIC_HEAT_RAMP'/
&RAMP ID='MMA_SPECIFIC_HEAT_RAMP',T=113,F=1.5/ 
&RAMP ID='MMA_SPECIFIC_HEAT_RAMP',T=299,F=1.9/


&MATL ID='PMMA',
      SPECIFIC_HEAT_RAMP='PMMA_SPECIFIC_HEAT_RAMP',
      CONDUCTIVITY_RAMP='PMMA_CONDUCTIVITY_RAMP',
      DENSITY=1210.0,
      ABSORPTION_COEFFICIENT=2870.0,
      EMISSIVITY=0.96,
      HEAT_OF_COMBUSTION=2.41E+4,
      N_REACTIONS=1,
      HEAT_OF_REACTION=5.0,
      MATL_ID(1,1)='int',
      NU_MATL(1,1)=0.98,
      SPEC_ID(1,1)='MMA',
      NU_SPEC(1,1)=0.02,
      A=4.95E+16,
      E=1.64E+5/

&RAMP ID='PMMA_CONDUCTIVITY_RAMP', T=20.85, F=0.16/
&RAMP ID='PMMA_CONDUCTIVITY_RAMP', T=26.85, F=0.16/
&RAMP ID='PMMA_CONDUCTIVITY_RAMP', T=76.85, F=0.16/
&RAMP ID='PMMA_CONDUCTIVITY_RAMP', T=121.85, F=0.16/
&RAMP ID='PMMA_CONDUCTIVITY_RAMP', T=176.85, F=0.151/
&RAMP ID='PMMA_CONDUCTIVITY_RAMP', T=226.85, F=0.13/
&RAMP ID='PMMA_CONDUCTIVITY_RAMP', T=276.85, F=0.109/
&RAMP ID='PMMA_CONDUCTIVITY_RAMP', T=326.85, F=0.088/
&RAMP ID='PMMA_CONDUCTIVITY_RAMP', T=376.85, F=0.067/
&RAMP ID='PMMA_CONDUCTIVITY_RAMP', T=426.85, F=0.046/
&RAMP ID='PMMA_CONDUCTIVITY_RAMP', T=476.85, F=0.025/
&RAMP ID='PMMA_CONDUCTIVITY_RAMP', T=526.85, F=4.0E-3/
&RAMP ID='PMMA_SPECIFIC_HEAT_RAMP', T=20.85, F=1.05902/
&RAMP ID='PMMA_SPECIFIC_HEAT_RAMP', T=26.85, F=1.109/
&RAMP ID='PMMA_SPECIFIC_HEAT_RAMP', T=76.85, F=1.5255/
&RAMP ID='PMMA_SPECIFIC_HEAT_RAMP', T=121.85, F=1.90035/
&RAMP ID='PMMA_SPECIFIC_HEAT_RAMP', T=146.85, F=2.1404/
&RAMP ID='PMMA_SPECIFIC_HEAT_RAMP', T=176.85, F=2.2325/
&RAMP ID='PMMA_SPECIFIC_HEAT_RAMP', T=226.85, F=2.386/
&RAMP ID='PMMA_SPECIFIC_HEAT_RAMP', T=276.85, F=2.5395/
&RAMP ID='PMMA_SPECIFIC_HEAT_RAMP', T=326.85, F=2.693/
&RAMP ID='PMMA_SPECIFIC_HEAT_RAMP', T=376.85, F=2.8465/
&RAMP ID='PMMA_SPECIFIC_HEAT_RAMP', T=426.85, F=3.0/
&RAMP ID='PMMA_SPECIFIC_HEAT_RAMP', T=476.85, F=3.1535/
&RAMP ID='PMMA_SPECIFIC_HEAT_RAMP', T=526.85, F=3.307/

&MATL ID='int',
      SPECIFIC_HEAT_RAMP='int_SPECIFIC_HEAT_RAMP',
      CONDUCTIVITY_RAMP='int_CONDUCTIVITY_RAMP',
      DENSITY=1210.0,
      ABSORPTION_COEFFICIENT=2870.0,
      EMISSIVITY=0.96,
      HEAT_OF_COMBUSTION=2.41E+4,
      N_REACTIONS=1,
      HEAT_OF_REACTION=817.0,
      MATL_ID(1,1)='char',
      NU_MATL(1,1)=2.0E-3,
      SPEC_ID(1,1)='MMA',
      NU_SPEC(1,1)=0.998,
      A=1.35E+11,
      E=1.64E+5/

&RAMP ID='int_CONDUCTIVITY_RAMP', T=20.85, F=0.16/
&RAMP ID='int_CONDUCTIVITY_RAMP', T=26.85, F=0.16/
&RAMP ID='int_CONDUCTIVITY_RAMP', T=76.85, F=0.16/
&RAMP ID='int_CONDUCTIVITY_RAMP', T=121.85, F=0.16/
&RAMP ID='int_CONDUCTIVITY_RAMP', T=176.85, F=0.151/
&RAMP ID='int_CONDUCTIVITY_RAMP', T=226.85, F=0.13/
&RAMP ID='int_CONDUCTIVITY_RAMP', T=276.85, F=0.109/
&RAMP ID='int_CONDUCTIVITY_RAMP', T=326.85, F=0.088/
&RAMP ID='int_CONDUCTIVITY_RAMP', T=376.85, F=0.067/
&RAMP ID='int_CONDUCTIVITY_RAMP', T=426.85, F=0.046/
&RAMP ID='int_CONDUCTIVITY_RAMP', T=476.85, F=0.025/
&RAMP ID='int_CONDUCTIVITY_RAMP', T=526.85, F=4.0E-3/
&RAMP ID='int_SPECIFIC_HEAT_RAMP', T=20.85, F=1.05902/
&RAMP ID='int_SPECIFIC_HEAT_RAMP', T=26.85, F=1.109/
&RAMP ID='int_SPECIFIC_HEAT_RAMP', T=76.85, F=1.5255/
&RAMP ID='int_SPECIFIC_HEAT_RAMP', T=121.85, F=1.90035/
&RAMP ID='int_SPECIFIC_HEAT_RAMP', T=146.85, F=2.1404/
&RAMP ID='int_SPECIFIC_HEAT_RAMP', T=176.85, F=2.2325/
&RAMP ID='int_SPECIFIC_HEAT_RAMP', T=226.85, F=2.386/
&RAMP ID='int_SPECIFIC_HEAT_RAMP', T=276.85, F=2.5395/
&RAMP ID='int_SPECIFIC_HEAT_RAMP', T=326.85, F=2.693/
&RAMP ID='int_SPECIFIC_HEAT_RAMP', T=376.85, F=2.8465/
&RAMP ID='int_SPECIFIC_HEAT_RAMP', T=426.85, F=3.0/
&RAMP ID='int_SPECIFIC_HEAT_RAMP', T=476.85, F=3.1535/
&RAMP ID='int_SPECIFIC_HEAT_RAMP', T=526.85, F=3.307/

&MATL ID='char',
      SPECIFIC_HEAT_RAMP='char_SPECIFIC_HEAT_RAMP',
      CONDUCTIVITY_RAMP='char_CONDUCTIVITY_RAMP',
      DENSITY=1210.0,
      ABSORPTION_COEFFICIENT=2870.0,
      EMISSIVITY=0.96/

&RAMP ID='char_SPECIFIC_HEAT_RAMP', T=20.85, F=1.05902/
&RAMP ID='char_SPECIFIC_HEAT_RAMP', T=26.85, F=1.109/
&RAMP ID='char_SPECIFIC_HEAT_RAMP', T=76.85, F=1.5255/
&RAMP ID='char_SPECIFIC_HEAT_RAMP', T=121.85, F=1.90035/
&RAMP ID='char_SPECIFIC_HEAT_RAMP', T=146.85, F=2.1404/
&RAMP ID='char_SPECIFIC_HEAT_RAMP', T=176.85, F=2.2325/
&RAMP ID='char_SPECIFIC_HEAT_RAMP', T=226.85, F=2.386/
&RAMP ID='char_SPECIFIC_HEAT_RAMP', T=276.85, F=2.5395/
&RAMP ID='char_SPECIFIC_HEAT_RAMP', T=326.85, F=2.693/
&RAMP ID='char_SPECIFIC_HEAT_RAMP', T=376.85, F=2.8465/
&RAMP ID='char_SPECIFIC_HEAT_RAMP', T=426.85, F=3.0/
&RAMP ID='char_SPECIFIC_HEAT_RAMP', T=476.85, F=3.1535/
&RAMP ID='char_SPECIFIC_HEAT_RAMP', T=526.85, F=3.307/
&RAMP ID='char_CONDUCTIVITY_RAMP', T=20.85, F=0.16/
&RAMP ID='char_CONDUCTIVITY_RAMP', T=26.85, F=0.16/
&RAMP ID='char_CONDUCTIVITY_RAMP', T=76.85, F=0.16/
&RAMP ID='char_CONDUCTIVITY_RAMP', T=121.85, F=0.16/
&RAMP ID='char_CONDUCTIVITY_RAMP', T=176.85, F=0.151/
&RAMP ID='char_CONDUCTIVITY_RAMP', T=226.85, F=0.13/
&RAMP ID='char_CONDUCTIVITY_RAMP', T=276.85, F=0.109/
&RAMP ID='char_CONDUCTIVITY_RAMP', T=326.85, F=0.088/
&RAMP ID='char_CONDUCTIVITY_RAMP', T=376.85, F=0.067/
&RAMP ID='char_CONDUCTIVITY_RAMP', T=426.85, F=0.046/
&RAMP ID='char_CONDUCTIVITY_RAMP', T=476.85, F=0.025/
&RAMP ID='char_CONDUCTIVITY_RAMP', T=526.85, F=4.0E-3/


&MATL ID='Marinite',
      SPECIFIC_HEAT=1.26,
      CONDUCTIVITY=0.13,
      DENSITY=737.0/

&SURF ID='Exhaust',
      RGB=26,204,26,
      VOLUME_FLOW=0.56/

&SURF ID='BURNER',
      COLOR='RED',
      TMP_FRONT=100.0,
      MASS_FLUX=0.041339396,
      SPEC_ID='MMA',
      RAMP_MF(1)='BURNER_RAMP_Q',
      RAMP_T='BURNER_RAMP_Q'/

&RAMP ID='BURNER_RAMP_Q', T=0.0, F=0.0/
&RAMP ID='BURNER_RAMP_Q', T=1.0, F=0.0495/
&RAMP ID='BURNER_RAMP_Q', T=2.0, F=0.231667/
&RAMP ID='BURNER_RAMP_Q', T=3.0, F=0.3606/
&RAMP ID='BURNER_RAMP_Q', T=4.0, F=0.494833/
&RAMP ID='BURNER_RAMP_Q', T=5.0, F=0.589867/
&RAMP ID='BURNER_RAMP_Q', T=6.0, F=0.652867/
&RAMP ID='BURNER_RAMP_Q', T=7.0, F=0.704933/
&RAMP ID='BURNER_RAMP_Q', T=8.0, F=0.770267/
&RAMP ID='BURNER_RAMP_Q', T=9.0, F=0.779767/
&RAMP ID='BURNER_RAMP_Q', T=10.0, F=0.844933/
&RAMP ID='BURNER_RAMP_Q', T=11.0, F=0.857867/
&RAMP ID='BURNER_RAMP_Q', T=12.0, F=0.887967/
&RAMP ID='BURNER_RAMP_Q', T=13.0, F=0.889033/
&RAMP ID='BURNER_RAMP_Q', T=14.0, F=0.927467/
&RAMP ID='BURNER_RAMP_Q', T=15.0, F=1.0/
&RAMP ID='BURNER_RAMP_Q', T=16.0, F=1.0/
&RAMP ID='BURNER_RAMP_Q', T=200.0, F=1.0/

      
&SURF ID='PMMA_1',
      RGB=153,204,255,
      MATL_ID(1,1)='PMMA',
      MATL_ID(2,1)='Marinite',
      MATL_MASS_FRACTION(1,1)=1.0,
      MATL_MASS_FRACTION(2,1)=1.0,
      STRETCH_FACTOR(1:2) = 1.0,1.0,
      THICKNESS(1:2)=5.8E-3,0.0127/


&SURF ID='PMMA_2',
      RGB=153,204,255,
      MATL_ID(1,1)='Marinite',
      MATL_ID(2,1)='PMMA',
      MATL_MASS_FRACTION(1,1)=1.0,
      MATL_MASS_FRACTION(2,1)=1.0,
      STRETCH_FACTOR(1:2) = 1.0,1.0,
      THICKNESS(1:2)=0.0127,5.8E-3/


&SURF ID='Marinite',
      RGB=146,202,166,
      BACKING='VOID',
      MATL_ID(1,1)='Marinite',
      MATL_MASS_FRACTION(1,1)=1.0,
      THICKNESS(1)=0.0127/

&OBST ID='Obstruction12', XB=0.62,0.64,0.58,0.6,0.36,0.4, SURF_IDS='BURNER','INERT','INERT'/ 
&OBST ID='Obstruction11', XB=0.6,0.62,0.58,0.62,0.36,0.4, SURF_IDS='BURNER','INERT','INERT'/ 
&OBST ID='Obstruction10', XB=0.58,0.6,0.58,0.64,0.36,0.4, SURF_IDS='BURNER','INERT','INERT'/ 
&OBST ID='Obstruction9', XB=0.56,0.58,0.58,0.66,0.36,0.4, SURF_IDS='BURNER','INERT','INERT'/ 
&OBST ID='Obstruction8', XB=0.54,0.56,0.58,0.68,0.36,0.4, SURF_IDS='BURNER','INERT','INERT'/ 
&OBST ID='Obstruction7', XB=0.52,0.54,0.58,0.7,0.36,0.4, SURF_IDS='BURNER','INERT','INERT'/ 
&OBST ID='Obstruction6', XB=0.5,0.52,0.58,0.72,0.36,0.4, SURF_IDS='BURNER','INERT','INERT'/ 
&OBST ID='Obstruction5', XB=0.48,0.5,0.58,0.74,0.36,0.4, SURF_IDS='BURNER','INERT','INERT'/ 
&OBST ID='Obstruction4', XB=0.46,0.48,0.58,0.76,0.36,0.4, SURF_IDS='BURNER','INERT','INERT'/ 
&OBST ID='Obstruction3', XB=0.44,0.46,0.58,0.78,0.36,0.4, SURF_IDS='BURNER','INERT','INERT'/ 
&OBST ID='Obstruction2', XB=0.42,0.44,0.58,0.8,0.36,0.4, SURF_IDS='BURNER','INERT','INERT'/ 
&OBST ID='Obstruction1', XB=0.4,0.42,0.58,0.82,0.36,0.4, SURF_IDS='BURNER','INERT','INERT'/ 

&OBST ID='PMMA', XB=0.34,0.84,0.52,0.54,0.36,1.82, SURF_ID6='Marinite','Marinite','PMMA_2','PMMA_1','Marinite','Marinite'/ 


&OBST ID='Obstruction #2', XB=0.34,1.04,0.52,1.22,0.36,0.36, COLOR='GRAY 94', SURF_ID='INERT'/ 
&OBST ID='Obstruction1', XB=0.34,1.04,0.5,0.52,0.36,1.82, COLOR='GRAY 80', SURF_ID='Marinite'/ 
&OBST ID='Obstruction1', XB=0.32,0.34,0.52,1.22,0.36,1.82, COLOR='GRAY 80', SURF_ID='Marinite'/ 

&OBST ID='PMMA Board1', XB=0.34,0.36,0.52,1.02,0.36,1.82, SURF_ID6='PMMA_2','PMMA_1','Marinite','Marinite','Marinite','Marinite'/ 

&OBST ID='Mesh Vent: Mesh5 [ZMAX]04', XB=0.62,0.82,0.62,0.82,2.98,3.0, RGB=102,102,255, SURF_IDS='INERT','INERT','Exhaust'/ 
&OBST ID='Obstruction #1', XB=1.72,1.72,-0.28,1.72,2.4,2.44, COLOR='GRAY 60', SURF_ID='INERT'/ 
&OBST ID='Obstruction1', XB=-0.28,1.72,-0.28,-0.28,2.4,2.44, COLOR='GRAY 60', SURF_ID='INERT'/ 
&OBST ID='Obstruction1', XB=-0.28,1.72,1.72,1.72,2.4,2.44, COLOR='GRAY 60', SURF_ID='INERT'/ 
&OBST ID='Obstruction #1', XB=-0.28,-0.28,-0.28,1.72,2.4,2.44, COLOR='GRAY 60', SURF_ID='INERT'/ 
&OBST ID='Obstruction1', XB=-0.22,1.66,-0.22,-0.22,2.44,2.48, COLOR='GRAY 60', SURF_ID='INERT'/ 
&OBST ID='Obstruction1', XB=-0.16,1.6,-0.16,-0.16,2.48,2.52, COLOR='GRAY 60', SURF_ID='INERT'/ 
&OBST ID='Obstruction1', XB=-0.1,1.54,-0.1,-0.1,2.52,2.56, COLOR='GRAY 60', SURF_ID='INERT'/ 
&OBST ID='Obstruction1', XB=-0.04,1.48,-0.04,-0.04,2.56,2.6, COLOR='GRAY 60', SURF_ID='INERT'/ 
&OBST ID='Obstruction1', XB=0.02,1.42,0.02,0.02,2.6,2.64, COLOR='GRAY 60', SURF_ID='INERT'/ 
&OBST ID='Obstruction1', XB=0.08,1.36,0.08,0.08,2.64,2.68, COLOR='GRAY 60', SURF_ID='INERT'/ 
&OBST ID='Obstruction1', XB=0.14,1.3,0.14,0.14,2.68,2.72, COLOR='GRAY 60', SURF_ID='INERT'/ 
&OBST ID='Obstruction1', XB=0.2,1.24,0.2,0.2,2.72,2.76, COLOR='GRAY 60', SURF_ID='INERT'/ 
&OBST ID='Obstruction1', XB=0.26,1.18,0.26,0.26,2.76,2.8, COLOR='GRAY 60', SURF_ID='INERT'/ 
&OBST ID='Obstruction1', XB=0.32,1.12,0.32,0.32,2.8,2.84, COLOR='GRAY 60', SURF_ID='INERT'/ 
&OBST ID='Obstruction1', XB=0.38,1.06,0.38,0.38,2.84,2.88, COLOR='GRAY 60', SURF_ID='INERT'/ 
&OBST ID='Obstruction1', XB=0.44,1.0,0.44,0.44,2.88,2.92, COLOR='GRAY 60', SURF_ID='INERT'/ 
&OBST ID='Obstruction1', XB=0.5,0.94,0.5,0.5,2.92,2.96, COLOR='GRAY 60', SURF_ID='INERT'/ 
&OBST ID='Obstruction1', XB=0.56,0.88,0.56,0.56,2.96,3.0, COLOR='GRAY 60', SURF_ID='INERT'/ 
&OBST ID='Obstruction1', XB=0.62,0.82,0.62,0.62,3.0,3.04, COLOR='GRAY 60', SURF_ID='INERT'/ 
&OBST ID='Obstruction1', XB=-0.22,1.66,1.66,1.66,2.44,2.48, COLOR='GRAY 60', SURF_ID='INERT'/ 
! ... 105 like lines cut


&OBST ID='Obstruction1', XB=-0.28,1.72,1.72,1.72,0.8,2.4, COLOR='INVISIBLE', SURF_ID='INERT'/ 


&OBST ID='Obstruction #1', XB=-0.28,-0.28,-0.28,1.72,0.2,2.4, COLOR='GRAY 80', SURF_ID='INERT'/ 
&OBST ID='Mesh Vent: Mesh5 [ZMAX]01', XB=-0.28,1.72,-0.28,1.72,0.2,0.2, COLOR='GRAY 80', SURF_ID='INERT'/ 
&OBST ID='Obstruction #1', XB=1.72,1.72,-0.28,1.72,0.8,2.4, COLOR='INVISIBLE', SURF_ID='INERT'/ 
&OBST ID='Obstruction #1', XB=1.72,1.72,-0.28,-0.26,0.2,0.22, COLOR='GRAY 80', SURF_ID='INERT'/ 
&OBST ID='Obstruction #1', XB=1.72,1.72,-0.24,-0.22,0.2,0.22, COLOR='GRAY 80', SURF_ID='INERT'/ 
&OBST ID='Obstruction #1', XB=1.72,1.72,-0.2,-0.18,0.2,0.22, COLOR='GRAY 80', SURF_ID='INERT'/ 
&OBST ID='Obstruction #1', XB=1.72,1.72,-0.16,-0.14,0.2,0.22, COLOR='GRAY 80', SURF_ID='INERT'/ 
&OBST ID='Obstruction #1', XB=1.72,1.72,-0.12,-0.1,0.2,0.22, COLOR='GRAY 80', SURF_ID='INERT'/ 
&OBST ID='Obstruction #1', XB=1.72,1.72,-0.08,-0.06,0.2,0.22, COLOR='GRAY 80', SURF_ID='INERT'/ 
&OBST ID='Obstruction #1', XB=1.72,1.72,-0.04,-0.02,0.2,0.22, COLOR='GRAY 80', SURF_ID='INERT'/ 
&OBST ID='Obstruction #1', XB=1.72,1.72,0.0,0.02,0.2,0.22, COLOR='GRAY 80', SURF_ID='INERT'/ 
&OBST ID='Obstruction #1', XB=1.72,1.72,0.04,0.06,0.2,0.22, COLOR='GRAY 80', SURF_ID='INERT'/ 
&OBST ID='Obstruction #1', XB=1.72,1.72,0.08,0.1,0.2,0.22, COLOR='GRAY 80', SURF_ID='INERT'/ 
&OBST ID='Obstruction #1', XB=1.72,1.72,0.12,0.14,0.2,0.22, COLOR='GRAY 80', SURF_ID='INERT'/ 
&OBST ID='Obstruction #1', XB=1.72,1.72,0.16,0.18,0.2,0.22, COLOR='GRAY 80', SURF_ID='INERT'/ 
&OBST ID='Obstruction #1', XB=1.72,1.72,0.2,0.22,0.2,0.22, COLOR='GRAY 80', SURF_ID='INERT'/ 
&OBST ID='Obstruction #1', XB=1.72,1.72,0.24,0.26,0.2,0.22, COLOR='GRAY 80', SURF_ID='INERT'/ 
&OBST ID='Obstruction #1', XB=1.72,1.72,0.28,0.3,0.2,0.22, COLOR='GRAY 80', SURF_ID='INERT'/ 
&OBST ID='Obstruction #1', XB=1.72,1.72,0.32,0.34,0.2,0.22, COLOR='GRAY 80', SURF_ID='INERT'/ 
&OBST ID='Obstruction #1', XB=1.72,1.72,0.36,0.38,0.2,0.22, COLOR='GRAY 80', SURF_ID='INERT'/ 
&OBST ID='Obstruction #1', XB=1.72,1.72,0.4,0.42,0.2,0.22, COLOR='GRAY 80', SURF_ID='INERT'/ 
&OBST ID='Obstruction #1', XB=1.72,1.72,0.44,0.46,0.2,0.22, COLOR='GRAY 80', SURF_ID='INERT'/ 
&OBST ID='Obstruction #1', XB=1.72,1.72,0.48,0.5,0.2,0.22, COLOR='GRAY 80', SURF_ID='INERT'/ 
! ... 2230 like lines cut

&VENT ID='Mesh Vent: Mesh01 [XMAX]', SURF_ID='OPEN', XB=1.8,1.8,-0.32,1.8,0.18,3.04/ 
&VENT ID='Mesh Vent: Mesh01 [XMIN]', SURF_ID='OPEN', XB=-0.32,-0.32,-0.32,1.8,0.18,3.04/ 
&VENT ID='Mesh Vent: Mesh01 [YMAX]', SURF_ID='OPEN', XB=-0.32,1.8,1.8,1.8,0.18,3.04/ 
&VENT ID='Mesh Vent: Mesh01 [YMIN]', SURF_ID='OPEN', XB=-0.32,1.8,-0.32,-0.32,0.18,3.04/ 
&VENT ID='Mesh Vent: Mesh01 [ZMAX]', SURF_ID='OPEN', XB=-0.32,1.8,-0.32,1.8,3.04,3.04/ 
&VENT ID='Mesh Vent: Mesh01 [ZMIN]', SURF_ID='OPEN', XB=-0.32,1.8,-0.32,1.8,0.18,0.18/ 

&PROP ID='SOLID props', GAUGE_TEMPERATURE=20.0/
&PROP ID='SOLID01 props', GAUGE_TEMPERATURE=20.0/
&PROP ID='SOLID02 props', GAUGE_TEMPERATURE=20.0/
&PROP ID='SOLID03 props', GAUGE_TEMPERATURE=20.0/
&PROP ID='SOLID04 props', GAUGE_TEMPERATURE=20.0/
&PROP ID='SOLID05 props', GAUGE_TEMPERATURE=20.0/
&PROP ID='SOLID06 props', GAUGE_TEMPERATURE=20.0/
&PROP ID='SOLID07 props', GAUGE_TEMPERATURE=20.0/
&PROP ID='SOLID08 props', GAUGE_TEMPERATURE=20.0/
&PROP ID='SOLID09 props', GAUGE_TEMPERATURE=20.0/
&PROP ID='SOLID10 props', GAUGE_TEMPERATURE=20.0/
&PROP ID='SOLID11 props', GAUGE_TEMPERATURE=20.0/
&PROP ID='SOLID12 props', GAUGE_TEMPERATURE=20.0/
&PROP ID='SOLID13 props', GAUGE_TEMPERATURE=20.0/
&PROP ID='SOLID14 props', GAUGE_TEMPERATURE=20.0/
&PROP ID='SOLID15 props', GAUGE_TEMPERATURE=20.0/
&PROP ID='SOLID16 props', GAUGE_TEMPERATURE=20.0/
&PROP ID='SOLID17 props', GAUGE_TEMPERATURE=20.0/
&PROP ID='SOLID18 props', GAUGE_TEMPERATURE=20.0/
&PROP ID='SOLID19 props', GAUGE_TEMPERATURE=20.0/
&PROP ID='SOLID20 props', GAUGE_TEMPERATURE=20.0/
! ... 35 like lines cut

&DEVC ID='burning rate5', QUANTITY='BURNING RATE', XYZ=0.41,0.54,0.5, IOR=2/
&DEVC ID='burning rate5_1', QUANTITY='BURNING RATE', XYZ=0.41,0.54,0.5, IOR=2/
&DEVC ID='burning rate22_1', QUANTITY='BURNING RATE', XYZ=0.58,0.54,0.5, IOR=2/
&DEVC ID='burning rate01', QUANTITY='BURNING RATE', XYZ=0.41,0.54,0.6, IOR=2/
&DEVC ID='burning rate5_01', QUANTITY='BURNING RATE', XYZ=0.41,0.54,0.6, IOR=2/
&DEVC ID='burning rate22_01', QUANTITY='BURNING RATE', XYZ=0.58,0.54,0.6, IOR=2/
&DEVC ID='burning rate03', QUANTITY='BURNING RATE', XYZ=0.41,0.54,0.7, IOR=2/
&DEVC ID='burning rate5_02', QUANTITY='BURNING RATE', XYZ=0.41,0.54,0.7, IOR=2/
&DEVC ID='burning rate22_02', QUANTITY='BURNING RATE', XYZ=0.58,0.54,0.7, IOR=2/
&DEVC ID='burning rate05', QUANTITY='BURNING RATE', XYZ=0.41,0.54,0.8, IOR=2/
&DEVC ID='burning rate5_03', QUANTITY='BURNING RATE', XYZ=0.41,0.54,0.8, IOR=2/
&DEVC ID='burning rate22_03', QUANTITY='BURNING RATE', XYZ=0.58,0.54,0.8, IOR=2/
&DEVC ID='burning rate07', QUANTITY='BURNING RATE', XYZ=0.41,0.54,0.9, IOR=2/
&DEVC ID='burning rate5_04', QUANTITY='BURNING RATE', XYZ=0.41,0.54,0.9, IOR=2/
&DEVC ID='burning rate22_04', QUANTITY='BURNING RATE', XYZ=0.58,0.54,0.9, IOR=2/
&DEVC ID='burning rate09', QUANTITY='BURNING RATE', XYZ=0.41,0.54,1.0, IOR=2/
&DEVC ID='burning rate5_05', QUANTITY='BURNING RATE', XYZ=0.41,0.54,1.0, IOR=2/
&DEVC ID='burning rate22_05', QUANTITY='BURNING RATE', XYZ=0.58,0.54,1.0, IOR=2/
&DEVC ID='burning rate11', QUANTITY='BURNING RATE', XYZ=0.41,0.54,1.1, IOR=2/
&DEVC ID='burning rate5_06', QUANTITY='BURNING RATE', XYZ=0.41,0.54,1.1, IOR=2/
&DEVC ID='burning rate22_06', QUANTITY='BURNING RATE', XYZ=0.58,0.54,1.1, IOR=2/
&DEVC ID='burning rate5_07', QUANTITY='BURNING RATE', XYZ=0.41,0.54,1.2, IOR=2/
&DEVC ID='burning rate22_07', QUANTITY='BURNING RATE', XYZ=0.58,0.54,1.2, IOR=2/
&DEVC ID='burning rate5_08', QUANTITY='BURNING RATE', XYZ=0.41,0.54,1.3, IOR=2/
&DEVC ID='burning rate22_08', QUANTITY='BURNING RATE', XYZ=0.58,0.54,1.3, IOR=2/
&DEVC ID='burning rate5_09', QUANTITY='BURNING RATE', XYZ=0.41,0.54,1.4, IOR=2/
&DEVC ID='burning rate22_09', QUANTITY='BURNING RATE', XYZ=0.58,0.54,1.4, IOR=2/
&DEVC ID='burning rate5_10', QUANTITY='BURNING RATE', XYZ=0.41,0.54,1.5, IOR=2/
&DEVC ID='burning rate22_10', QUANTITY='BURNING RATE', XYZ=0.58,0.54,1.5, IOR=2/
&DEVC ID='burning rate5_11', QUANTITY='BURNING RATE', XYZ=0.41,0.54,1.6, IOR=2/
&DEVC ID='burning rate22_11', QUANTITY='BURNING RATE', XYZ=0.58,0.54,1.6, IOR=2/
&DEVC ID='burning rate5_12', QUANTITY='BURNING RATE', XYZ=0.41,0.54,1.7, IOR=2/
&DEVC ID='burning rate22_12', QUANTITY='BURNING RATE', XYZ=0.58,0.54,1.7, IOR=2/

&DEVC ID='SOLID', PROP_ID='SOLID props', QUANTITY='GAUGE HEAT FLUX', XYZ=0.36,0.59,0.5, IOR=1/
&DEVC ID='SOLID01', PROP_ID='SOLID01 props', QUANTITY='GAUGE HEAT FLUX', XYZ=0.46,0.54,0.5, IOR=2/
&DEVC ID='SOLID02', PROP_ID='SOLID02 props', QUANTITY='GAUGE HEAT FLUX', XYZ=0.51,0.54,0.5, IOR=2/
&DEVC ID='SOLID03', PROP_ID='SOLID03 props', QUANTITY='GAUGE HEAT FLUX', XYZ=0.58,0.54,0.5, IOR=2/
&DEVC ID='SOLID04', PROP_ID='SOLID04 props', QUANTITY='GAUGE HEAT FLUX', XYZ=0.51,0.54,0.7, IOR=2/
&DEVC ID='SOLID05', PROP_ID='SOLID05 props', QUANTITY='GAUGE HEAT FLUX', XYZ=0.58,0.54,0.7, IOR=2/
&DEVC ID='SOLID06', PROP_ID='SOLID06 props', QUANTITY='GAUGE HEAT FLUX', XYZ=0.46,0.54,0.7, IOR=2/
&DEVC ID='SOLID07', PROP_ID='SOLID07 props', QUANTITY='GAUGE HEAT FLUX', XYZ=0.41,0.54,0.7, IOR=2/
&DEVC ID='SOLID08', PROP_ID='SOLID08 props', QUANTITY='GAUGE HEAT FLUX', XYZ=0.51,0.54,0.9, IOR=2/
&DEVC ID='SOLID09', PROP_ID='SOLID09 props', QUANTITY='GAUGE HEAT FLUX', XYZ=0.58,0.54,0.9, IOR=2/
&DEVC ID='SOLID10', PROP_ID='SOLID10 props', QUANTITY='GAUGE HEAT FLUX', XYZ=0.46,0.54,0.9, IOR=2/
&DEVC ID='SOLID11', PROP_ID='SOLID11 props', QUANTITY='GAUGE HEAT FLUX', XYZ=0.41,0.54,0.9, IOR=2/
&DEVC ID='SOLID12', PROP_ID='SOLID12 props', QUANTITY='GAUGE HEAT FLUX', XYZ=0.51,0.54,1.1, IOR=2/
&DEVC ID='SOLID13', PROP_ID='SOLID13 props', QUANTITY='GAUGE HEAT FLUX', XYZ=0.58,0.54,1.1, IOR=2/
&DEVC ID='SOLID14', PROP_ID='SOLID14 props', QUANTITY='GAUGE HEAT FLUX', XYZ=0.46,0.54,1.1, IOR=2/
&DEVC ID='SOLID15', PROP_ID='SOLID15 props', QUANTITY='GAUGE HEAT FLUX', XYZ=0.41,0.54,1.1, IOR=2/
&DEVC ID='SOLID16', PROP_ID='SOLID16 props', QUANTITY='GAUGE HEAT FLUX', XYZ=0.51,0.54,1.3, IOR=2/
&DEVC ID='SOLID17', PROP_ID='SOLID17 props', QUANTITY='GAUGE HEAT FLUX', XYZ=0.58,0.54,1.3, IOR=2/
&DEVC ID='SOLID18', PROP_ID='SOLID18 props', QUANTITY='GAUGE HEAT FLUX', XYZ=0.46,0.54,1.3, IOR=2/
&DEVC ID='SOLID19', PROP_ID='SOLID19 props', QUANTITY='GAUGE HEAT FLUX', XYZ=0.41,0.54,1.3, IOR=2/
&DEVC ID='SOLID20', PROP_ID='SOLID20 props', QUANTITY='GAUGE HEAT FLUX', XYZ=0.51,0.54,1.5, IOR=2/
! ... 35 like lines cut

&DEVC ID='GAS1', QUANTITY='TEMPERATURE', XYZ=0.41,0.54,0.7, ORIENTATION=0.0,1.0,0.0/
&DEVC ID='GAS01', QUANTITY='TEMPERATURE', XYZ=0.58,0.54,0.7, ORIENTATION=0.0,1.0,0.0/
&DEVC ID='GAS02', QUANTITY='TEMPERATURE', XYZ=0.58,0.58,0.7, ORIENTATION=0.0,1.0,0.0/
&DEVC ID='GAS03', QUANTITY='TEMPERATURE', XYZ=0.41,0.58,0.7, ORIENTATION=0.0,1.0,0.0/
&DEVC ID='GAS04', QUANTITY='TEMPERATURE', XYZ=0.58,0.62,0.7, ORIENTATION=0.0,1.0,0.0/
&DEVC ID='GAS05', QUANTITY='TEMPERATURE', XYZ=0.41,0.62,0.7, ORIENTATION=0.0,1.0,0.0/
&DEVC ID='GAS06', QUANTITY='TEMPERATURE', XYZ=0.58,0.66,0.7, ORIENTATION=0.0,1.0,0.0/
&DEVC ID='GAS07', QUANTITY='TEMPERATURE', XYZ=0.41,0.66,0.7, ORIENTATION=0.0,1.0,0.0/
&DEVC ID='GAS08', QUANTITY='TEMPERATURE', XYZ=0.58,0.7,0.7, ORIENTATION=0.0,1.0,0.0/
&DEVC ID='GAS09', QUANTITY='TEMPERATURE', XYZ=0.41,0.7,0.7, ORIENTATION=0.0,1.0,0.0/
&DEVC ID='GAS10', QUANTITY='TEMPERATURE', XYZ=0.58,0.74,0.7, ORIENTATION=0.0,1.0,0.0/
&DEVC ID='GAS11', QUANTITY='TEMPERATURE', XYZ=0.41,0.74,0.7, ORIENTATION=0.0,1.0,0.0/
&DEVC ID='GAS12', QUANTITY='TEMPERATURE', XYZ=0.58,0.78,0.7, ORIENTATION=0.0,1.0,0.0/
&DEVC ID='GAS13', QUANTITY='TEMPERATURE', XYZ=0.41,0.78,0.7, ORIENTATION=0.0,1.0,0.0/
&DEVC ID='GAS14', QUANTITY='TEMPERATURE', XYZ=0.58,0.82,0.7, ORIENTATION=0.0,1.0,0.0/
&DEVC ID='GAS15', QUANTITY='TEMPERATURE', XYZ=0.41,0.82,0.7, ORIENTATION=0.0,1.0,0.0/
&DEVC ID='GAS16', QUANTITY='TEMPERATURE', XYZ=0.58,0.86,0.7, ORIENTATION=0.0,1.0,0.0/
&DEVC ID='GAS17', QUANTITY='TEMPERATURE', XYZ=0.41,0.86,0.7, ORIENTATION=0.0,1.0,0.0/
&DEVC ID='GAS18', QUANTITY='TEMPERATURE', XYZ=0.58,0.9,0.7, ORIENTATION=0.0,1.0,0.0/
&DEVC ID='GAS19', QUANTITY='TEMPERATURE', XYZ=0.41,0.9,0.7, ORIENTATION=0.0,1.0,0.0/
! ... 24 like lines cut

&DEVC ID='velocity', QUANTITY='W-VELOCITY', XYZ=0.41,0.54,0.7/
&DEVC ID='velocity01', QUANTITY='W-VELOCITY', XYZ=0.58,0.54,0.7/
&DEVC ID='velocity02', QUANTITY='W-VELOCITY', XYZ=0.41,0.58,0.7/
&DEVC ID='velocity03', QUANTITY='W-VELOCITY', XYZ=0.58,0.58,0.7/
&DEVC ID='velocity04', QUANTITY='W-VELOCITY', XYZ=0.41,0.62,0.7/
&DEVC ID='velocity05', QUANTITY='W-VELOCITY', XYZ=0.58,0.62,0.7/
&DEVC ID='velocity06', QUANTITY='W-VELOCITY', XYZ=0.41,0.66,0.7/
&DEVC ID='velocity07', QUANTITY='W-VELOCITY', XYZ=0.58,0.66,0.7/
&DEVC ID='velocity08', QUANTITY='W-VELOCITY', XYZ=0.41,0.7,0.7/
&DEVC ID='velocity09', QUANTITY='W-VELOCITY', XYZ=0.58,0.7,0.7/
&DEVC ID='velocity10', QUANTITY='W-VELOCITY', XYZ=0.41,0.74,0.7/
&DEVC ID='velocity11', QUANTITY='W-VELOCITY', XYZ=0.58,0.74,0.7/
&DEVC ID='velocity12', QUANTITY='W-VELOCITY', XYZ=0.41,0.78,0.7/
&DEVC ID='velocity13', QUANTITY='W-VELOCITY', XYZ=0.58,0.78,0.7/
&DEVC ID='velocity14', QUANTITY='W-VELOCITY', XYZ=0.41,0.82,0.7/
&DEVC ID='velocity15', QUANTITY='W-VELOCITY', XYZ=0.58,0.82,0.7/
&DEVC ID='velocity16', QUANTITY='W-VELOCITY', XYZ=0.41,0.86,0.7/
&DEVC ID='velocity17', QUANTITY='W-VELOCITY', XYZ=0.58,0.86,0.7/
&DEVC ID='velocity18', QUANTITY='W-VELOCITY', XYZ=0.41,0.9,0.7/
&DEVC ID='velocity19', QUANTITY='W-VELOCITY', XYZ=0.58,0.9,0.7/
&DEVC ID='velocity20', QUANTITY='W-VELOCITY', XYZ=0.41,0.94,0.7/
! ... 23 like lines cut

&BNDF QUANTITY='GAS TEMPERATURE',CELL_CENTERED=T/
&BNDF QUANTITY='GAUGE HEAT FLUX',CELL_CENTERED=T/
&BNDF QUANTITY='WALL TEMPERATURE',CELL_CENTERED=T/
&BNDF QUANTITY='BURNING RATE',CELL_CENTERED=T/
&BNDF QUANTITY='HEAT TRANSFER COEFFICIENT',CELL_CENTERED=T/
&BNDF QUANTITY='RADIATIVE HEAT FLUX',CELL_CENTERED=T/
&BNDF QUANTITY='CONVECTIVE HEAT FLUX',CELL_CENTERED=T/
&BNDF QUANTITY='INCIDENT HEAT FLUX',CELL_CENTERED=T/
&BNDF QUANTITY='NET HEAT FLUX',CELL_CENTERED=T/
&BNDF QUANTITY='SURFACE DENSITY',MATL_ID='PMMA',CELL_CENTERED=T/
&BNDF QUANTITY='SURFACE DENSITY',MATL_ID='int',CELL_CENTERED=T/
&BNDF QUANTITY='SURFACE DENSITY',MATL_ID='MMA',CELL_CENTERED=T/

&ISOF QUANTITY='HRRPUV', VALUE=200.0/

&SLCF QUANTITY='TEMPERATURE', CELL_CENTERED=.TRUE., ID='X = 0.41 m: Temperature', PBX=0.41/
&SLCF QUANTITY='HRRPUV', CELL_CENTERED=.TRUE., ID='X = 0.41 m: Heat Release Rate per Unit Volume', PBX=0.41/
&SLCF QUANTITY='VELOCITY', CELL_CENTERED=.TRUE., ID='X = 0.41 m: Velocity', PBX=0.41/

&SLCF QUANTITY='TEMPERATURE', CELL_CENTERED=.TRUE., ID='X = 0.51 m: Temperature', PBX=0.51/
&SLCF QUANTITY='HRRPUV', CELL_CENTERED=.TRUE., ID='X = 0.51 m: Heat Release Rate per Unit Volume', PBX=0.51/
&SLCF QUANTITY='VELOCITY', CELL_CENTERED=.TRUE., ID='X = 0.51 m: Velocity', PBX=0.51/

&SLCF QUANTITY='TEMPERATURE', CELL_CENTERED=.TRUE., ID='Y = 0.59 m: Temperature', PBY=0.59/
&SLCF QUANTITY='HRRPUV', CELL_CENTERED=.TRUE., ID='Y = 0.59 m: Heat Release Rate per Unit Volume', PBY=0.59/
&SLCF QUANTITY='VELOCITY', CELL_CENTERED=.TRUE., ID='Y = 0.59 m: Velocity', PBY=0.59/

&SLCF QUANTITY='TEMPERATURE', CELL_CENTERED=.TRUE., ID='Y = 0.69 m: Temperature', PBY=0.69/
&SLCF QUANTITY='HRRPUV', CELL_CENTERED=.TRUE., ID='Y = 0.69 m: Heat Release Rate per Unit Volume', PBY=0.69/
&SLCF QUANTITY='VELOCITY', CELL_CENTERED=.TRUE., ID='Y = 0.69 m: Velocity', PBY=0.69/

&DEVC ID='GAS', QUANTITY='RADIATIVE HEAT FLUX GAS', XYZ=1.04,1.22,0.5, ORIENTATION=-0.707,-0.707,0.0/
&DEVC ID='GAS44', QUANTITY='RADIATIVE HEAT FLUX GAS', XYZ=1.04,1.22,0.7, ORIENTATION=-0.707,-0.707,0.0/
&DEVC ID='GAS45', QUANTITY='RADIATIVE HEAT FLUX GAS', XYZ=1.04,1.22,0.9, ORIENTATION=-0.707,-0.707,0.0/
&DEVC ID='GAS45', QUANTITY='RADIATIVE HEAT FLUX GAS', XYZ=1.04,1.22,0.9, ORIENTATION=-0.707,-0.707,0.0/
&DEVC ID='GAS46', QUANTITY='RADIATIVE HEAT FLUX GAS', XYZ=1.04,1.22,1.1, ORIENTATION=-0.707,-0.707,0.0/
&DEVC ID='GAS47', QUANTITY='RADIATIVE HEAT FLUX GAS', XYZ=1.04,1.22,1.3, ORIENTATION=-0.707,-0.707,0.0/
&DEVC ID='GAS48', QUANTITY='RADIATIVE HEAT FLUX GAS', XYZ=1.04,1.22,1.5, ORIENTATION=-0.707,-0.707,0.0/
&DEVC ID='GAS49', QUANTITY='RADIATIVE HEAT FLUX GAS', XYZ=1.04,1.22,1.7, ORIENTATION=-0.707,-0.707,0.0/

&DEVC ID='GASE1', QUANTITY='GAUGE HEAT FLUX GAS', XYZ=1.04,1.22,0.5, ORIENTATION=-0.707,-0.707,0.0/
&DEVC ID='GAS44E1', QUANTITY='GAUGE HEAT FLUX GAS', XYZ=1.04,1.22,0.7, ORIENTATION=-0.707,-0.707,0.0/
&DEVC ID='GAS45E1', QUANTITY='GAUGE HEAT FLUX GAS', XYZ=1.04,1.22,0.9, ORIENTATION=-0.707,-0.707,0.0/
&DEVC ID='GAS45E1', QUANTITY='GAUGE HEAT FLUX GAS', XYZ=1.04,1.22,0.9, ORIENTATION=-0.707,-0.707,0.0/
&DEVC ID='GAS46E1', QUANTITY='GAUGE HEAT FLUX GAS', XYZ=1.04,1.22,1.1, ORIENTATION=-0.707,-0.707,0.0/
&DEVC ID='GAS47E1', QUANTITY='GAUGE HEAT FLUX GAS', XYZ=1.04,1.22,1.3, ORIENTATION=-0.707,-0.707,0.0/
&DEVC ID='GAS48E1', QUANTITY='GAUGE HEAT FLUX GAS', XYZ=1.04,1.22,1.5, ORIENTATION=-0.707,-0.707,0.0/
&DEVC ID='GAS49E1', QUANTITY='GAUGE HEAT FLUX GAS', XYZ=1.04,1.22,1.7, ORIENTATION=-0.707,-0.707,0.0/

&DEVC ID='BURNING_RATE_x5_105', QUANTITY='BURNING RATE', XBP=0.41,0.41,0.54,0.54,0.36,1.82, POINTS=147, STATISTICS_START=104.5, STATISTICS_END=105.5,IOR=2/
&DEVC ID='BURNING_RATE_x5_145', QUANTITY='BURNING RATE', XBP=0.41,0.41,0.54,0.54,0.36,1.82, POINTS=147, STATISTICS_START=144.5, STATISTICS_END=145.5,IOR=2/
&DEVC ID='BURNING_RATE_x5_185', QUANTITY='BURNING RATE', XBP=0.41,0.41,0.54,0.54,0.36,1.82, POINTS=147, STATISTICS_START=184.5, STATISTICS_END=185.5,IOR=2/

&DEVC ID='BURNING_RATE_x22_105', QUANTITY='BURNING RATE', XBP=0.58,0.58,0.54,0.54,0.36,1.82, POINTS=147, STATISTICS_START=104.5, STATISTICS_END=105.5,IOR=2/
&DEVC ID='BURNING_RATE_x22_145', QUANTITY='BURNING RATE', XBP=0.58,0.58,0.54,0.54,0.36,1.82, POINTS=147, STATISTICS_START=144.5, STATISTICS_END=145.5,IOR=2/
&DEVC ID='BURNING_RATE_x22_185', QUANTITY='BURNING RATE', XBP=0.58,0.58,0.54,0.54,0.36,1.82, POINTS=147, STATISTICS_START=184.5, STATISTICS_END=185.5,IOR=2/

&DEVC QUANTITY='WALL TEMPERATURE',XB=0.41,0.41,0.54,0.54,0.36,1.82,POINTS=147,STATISTICS_START=104.5,STATISTICS_END=105.5,IOR=2,ID='WALL_TEMPERATURE_x5_105'/
&DEVC QUANTITY='WALL TEMPERATURE',XB=0.41,0.41,0.54,0.54,0.36,1.82,POINTS=147,STATISTICS_START=144.5,STATISTICS_END=145.5,IOR=2,ID='WALL_TEMPERATURE_x5_145'/
&DEVC QUANTITY='WALL TEMPERATURE',XB=0.41,0.41,0.54,0.54,0.36,1.82,POINTS=147,STATISTICS_START=184.5,STATISTICS_END=185.5,IOR=2,ID='WALL_TEMPERATURE_x5_185'/

&DEVC QUANTITY='WALL TEMPERATURE',XB=0.58,0.58,0.54,0.54,0.36,1.82,POINTS=147,STATISTICS_START=104.5,STATISTICS_END=105.5,IOR=2,ID='WALL_TEMPERATURE_x22_105'/
&DEVC QUANTITY='WALL TEMPERATURE',XB=0.58,0.58,0.54,0.54,0.36,1.82,POINTS=147,STATISTICS_START=144.5,STATISTICS_END=145.5,IOR=2,ID='WALL_TEMPERATURE_x22_145'/
&DEVC QUANTITY='WALL TEMPERATURE',XB=0.58,0.58,0.54,0.54,0.36,1.82,POINTS=147,STATISTICS_START=184.5,STATISTICS_END=185.5,IOR=2,ID='WALL_TEMPERATURE_x22_185'/

&DEVC QUANTITY='NET HEAT FLUX',XB=0.41,0.41,0.54,0.54,0.36,1.82,POINTS=147,STATISTICS_START=104.5,STATISTICS_END=105.5,IOR=2,ID='NET_HEAT_FLUX_x5_105'/
&DEVC QUANTITY='NET HEAT FLUX',XB=0.41,0.41,0.54,0.54,0.36,1.82,POINTS=147,STATISTICS_START=144.5,STATISTICS_END=145.5,IOR=2,ID='NET_HEAT_FLUX_x5_145'/
&DEVC QUANTITY='NET HEAT FLUX',XB=0.41,0.41,0.54,0.54,0.36,1.82,POINTS=147,STATISTICS_START=184.5,STATISTICS_END=185.5,IOR=2,ID='NET_HEAT_FLUX_x5_185'/

&DEVC QUANTITY='NET HEAT FLUX',XB=0.58,0.58,0.54,0.54,0.36,1.82,POINTS=147,STATISTICS_START=104.5,STATISTICS_END=105.5,IOR=2,ID='NET_HEAT_FLUX_x22_105'/
&DEVC QUANTITY='NET HEAT FLUX',XB=0.58,0.58,0.54,0.54,0.36,1.82,POINTS=147,STATISTICS_START=144.5,STATISTICS_END=145.5,IOR=2,ID='NET_HEAT_FLUX_x22_145'/
&DEVC QUANTITY='NET HEAT FLUX',XB=0.58,0.58,0.54,0.54,0.36,1.82,POINTS=147,STATISTICS_START=184.5,STATISTICS_END=185.5,IOR=2,ID='NET_HEAT_FLUX_x22_185'/

&DEVC QUANTITY='RADIATIVE HEAT FLUX',XB=0.41,0.41,0.54,0.54,0.36,1.82,POINTS=147,STATISTICS_START=104.5,STATISTICS_END=105.5,IOR=2,ID='RADIATIVE_HEAT_FLUX_x5_105'/
&DEVC QUANTITY='RADIATIVE HEAT FLUX',XB=0.41,0.41,0.54,0.54,0.36,1.82,POINTS=147,STATISTICS_START=144.5,STATISTICS_END=145.5,IOR=2,ID='RADIATIVE_HEAT_FLUX_x5_145'/
&DEVC QUANTITY='RADIATIVE HEAT FLUX',XB=0.41,0.41,0.54,0.54,0.36,1.82,POINTS=147,STATISTICS_START=184.5,STATISTICS_END=185.5,IOR=2,ID='RADIATIVE_HEAT_FLUX_x5_185'/

&DEVC QUANTITY='RADIATIVE HEAT FLUX',XB=0.58,0.58,0.54,0.54,0.36,1.82,POINTS=147,STATISTICS_START=104.5,STATISTICS_END=105.5,IOR=2,ID='RADIATIVE_HEAT_FLUX_x22_105'/
&DEVC QUANTITY='RADIATIVE HEAT FLUX',XB=0.58,0.58,0.54,0.54,0.36,1.82,POINTS=147,STATISTICS_START=144.5,STATISTICS_END=145.5,IOR=2,ID='RADIATIVE_HEAT_FLUX_x22_145'/
&DEVC QUANTITY='RADIATIVE HEAT FLUX',XB=0.58,0.58,0.54,0.54,0.36,1.82,POINTS=147,STATISTICS_START=184.5,STATISTICS_END=185.5,IOR=2,ID='RADIATIVE_HEAT_FLUX_x22_185'/

&DEVC QUANTITY='CONVECTIVE HEAT FLUX',XB=0.41,0.41,0.54,0.54,0.36,1.82,POINTS=147,STATISTICS_START=104.5,STATISTICS_END=105.5,IOR=2,ID='CONVECTIVE_HEAT_FLUX_x5_105'/
&DEVC QUANTITY='CONVECTIVE HEAT FLUX',XB=0.41,0.41,0.54,0.54,0.36,1.82,POINTS=147,STATISTICS_START=144.5,STATISTICS_END=145.5,IOR=2,ID='CONVECTIVE_HEAT_FLUX_x5_145'/
&DEVC QUANTITY='CONVECTIVE HEAT FLUX',XB=0.41,0.41,0.54,0.54,0.36,1.82,POINTS=147,STATISTICS_START=184.5,STATISTICS_END=185.5,IOR=2,ID='CONVECTIVE_HEAT_FLUX_x5_185'/

&DEVC QUANTITY='CONVECTIVE HEAT FLUX',XB=0.58,0.58,0.54,0.54,0.36,1.82,POINTS=147,STATISTICS_START=104.5,STATISTICS_END=105.5,IOR=2,ID='CONVECTIVE_HEAT_FLUX_x22_105'/
&DEVC QUANTITY='CONVECTIVE HEAT FLUX',XB=0.58,0.58,0.54,0.54,0.36,1.82,POINTS=147,STATISTICS_START=144.5,STATISTICS_END=145.5,IOR=2,ID='CONVECTIVE_HEAT_FLUX_x22_145'/
&DEVC QUANTITY='CONVECTIVE HEAT FLUX',XB=0.58,0.58,0.54,0.54,0.36,1.82,POINTS=147,STATISTICS_START=184.5,STATISTICS_END=185.5,IOR=2,ID='CONVECTIVE_HEAT_FLUX_x22_185'/

&DEVC ID='BURNING_RATE_Y5_105', QUANTITY='BURNING RATE', XBP=0.36,0.36,0.59,0.59,0.36,1.82, POINTS=147, STATISTICS_START=104.5, STATISTICS_END=105.5,IOR=1/
&DEVC ID='BURNING_RATE_Y5_145', QUANTITY='BURNING RATE', XBP=0.36,0.36,0.59,0.59,0.36,1.82, POINTS=147, STATISTICS_START=144.5, STATISTICS_END=145.5,IOR=1/
&DEVC ID='BURNING_RATE_Y5_185', QUANTITY='BURNING RATE', XBP=0.36,0.36,0.59,0.59,0.36,1.82, POINTS=147, STATISTICS_START=184.5, STATISTICS_END=185.5,IOR=1/

&DEVC ID='BURNING_RATE_Y22_105', QUANTITY='BURNING RATE', XBP=0.36,0.36,0.76,0.76,0.36,1.82, POINTS=147, STATISTICS_START=104.5, STATISTICS_END=105.5,IOR=1/
&DEVC ID='BURNING_RATE_Y22_145', QUANTITY='BURNING RATE', XBP=0.36,0.36,0.76,0.76,0.36,1.82, POINTS=147, STATISTICS_START=144.5, STATISTICS_END=145.5,IOR=1/
&DEVC ID='BURNING_RATE_Y22_185', QUANTITY='BURNING RATE', XBP=0.36,0.36,0.76,0.76,0.36,1.82, POINTS=147, STATISTICS_START=184.5, STATISTICS_END=185.5,IOR=1/

&DEVC QUANTITY='WALL TEMPERATURE',XB=0.36,0.36,0.59,0.59,0.36,1.82,POINTS=147,STATISTICS_START=104.5,STATISTICS_END=105.5,IOR=1,ID='WALL_TEMPERATURE_Y5_105'/
&DEVC QUANTITY='WALL TEMPERATURE',XB=0.36,0.36,0.59,0.59,0.36,1.82,POINTS=147,STATISTICS_START=144.5,STATISTICS_END=145.5,IOR=1,ID='WALL_TEMPERATURE_Y5_145'/
&DEVC QUANTITY='WALL TEMPERATURE',XB=0.36,0.36,0.59,0.59,0.36,1.82,POINTS=147,STATISTICS_START=184.5,STATISTICS_END=185.5,IOR=1,ID='WALL_TEMPERATURE_Y5_185'/

&DEVC QUANTITY='WALL TEMPERATURE',XB=0.36,0.36,0.76,0.76,0.36,1.82,POINTS=147,STATISTICS_START=104.5,STATISTICS_END=105.5,IOR=1,ID='WALL_TEMPERATURE_Y22_105'/
&DEVC QUANTITY='WALL TEMPERATURE',XB=0.36,0.36,0.76,0.76,0.36,1.82,POINTS=147,STATISTICS_START=144.5,STATISTICS_END=145.5,IOR=1,ID='WALL_TEMPERATURE_Y22_145'/
&DEVC QUANTITY='WALL TEMPERATURE',XB=0.36,0.36,0.76,0.76,0.36,1.82,POINTS=147,STATISTICS_START=184.5,STATISTICS_END=185.5,IOR=1,ID='WALL_TEMPERATURE_Y22_185'/

&DEVC QUANTITY='NET HEAT FLUX',XB=0.36,0.36,0.59,0.59,0.36,1.82,POINTS=147,STATISTICS_START=104.5,STATISTICS_END=105.5,IOR=1,ID='NET_HEAT_FLUX_Y5_105'/
&DEVC QUANTITY='NET HEAT FLUX',XB=0.36,0.36,0.59,0.59,0.36,1.82,POINTS=147,STATISTICS_START=144.5,STATISTICS_END=145.5,IOR=1,ID='NET_HEAT_FLUX_Y5_145'/
&DEVC QUANTITY='NET HEAT FLUX',XB=0.36,0.36,0.59,0.59,0.36,1.82,POINTS=147,STATISTICS_START=184.5,STATISTICS_END=185.5,IOR=1,ID='NET_HEAT_FLUX_Y5_185'/

&DEVC QUANTITY='NET HEAT FLUX',XB=0.36,0.36,0.76,0.76,0.36,1.82,POINTS=147,STATISTICS_START=104.5,STATISTICS_END=105.5,IOR=1,ID='NET_HEAT_FLUX_Y22_105'/
&DEVC QUANTITY='NET HEAT FLUX',XB=0.36,0.36,0.76,0.76,0.36,1.82,POINTS=147,STATISTICS_START=144.5,STATISTICS_END=145.5,IOR=1,ID='NET_HEAT_FLUX_Y22_145'/
&DEVC QUANTITY='NET HEAT FLUX',XB=0.36,0.36,0.76,0.76,0.36,1.82,POINTS=147,STATISTICS_START=184.5,STATISTICS_END=185.5,IOR=1,ID='NET_HEAT_FLUX_Y22_185'/

&DEVC QUANTITY='RADIATIVE HEAT FLUX',XB=0.36,0.36,0.59,0.59,0.36,1.82,POINTS=147,STATISTICS_START=104.5,STATISTICS_END=105.5,IOR=1,ID='RADIATIVE_HEAT_FLUX_Y5_105'/
&DEVC QUANTITY='RADIATIVE HEAT FLUX',XB=0.36,0.36,0.59,0.59,0.36,1.82,POINTS=147,STATISTICS_START=144.5,STATISTICS_END=145.5,IOR=1,ID='RADIATIVE_HEAT_FLUX_Y5_145'/
&DEVC QUANTITY='RADIATIVE HEAT FLUX',XB=0.36,0.36,0.59,0.59,0.36,1.82,POINTS=147,STATISTICS_START=184.5,STATISTICS_END=185.5,IOR=1,ID='RADIATIVE_HEAT_FLUX_Y5_185'/

&DEVC QUANTITY='RADIATIVE HEAT FLUX',XB=0.36,0.36,0.76,0.76,0.36,1.82,POINTS=147,STATISTICS_START=104.5,STATISTICS_END=105.5,IOR=1,ID='RADIATIVE_HEAT_FLUX_Y22_105'/
&DEVC QUANTITY='RADIATIVE HEAT FLUX',XB=0.36,0.36,0.76,0.76,0.36,1.82,POINTS=147,STATISTICS_START=144.5,STATISTICS_END=145.5,IOR=1,ID='RADIATIVE_HEAT_FLUX_Y22_145'/
&DEVC QUANTITY='RADIATIVE HEAT FLUX',XB=0.36,0.36,0.76,0.76,0.36,1.82,POINTS=147,STATISTICS_START=184.5,STATISTICS_END=185.5,IOR=1,ID='RADIATIVE_HEAT_FLUX_Y22_185'/

&DEVC QUANTITY='CONVECTIVE HEAT FLUX',XB=0.36,0.36,0.59,0.59,0.36,1.82,POINTS=147,STATISTICS_START=104.5,STATISTICS_END=105.5,IOR=1,ID='CONVECTIVE_HEAT_FLUX_Y5_105'/
&DEVC QUANTITY='CONVECTIVE HEAT FLUX',XB=0.36,0.36,0.59,0.59,0.36,1.82,POINTS=147,STATISTICS_START=144.5,STATISTICS_END=145.5,IOR=1,ID='CONVECTIVE_HEAT_FLUX_Y5_145'/
&DEVC QUANTITY='CONVECTIVE HEAT FLUX',XB=0.36,0.36,0.59,0.59,0.36,1.82,POINTS=147,STATISTICS_START=184.5,STATISTICS_END=185.5,IOR=1,ID='CONVECTIVE_HEAT_FLUX_Y5_185'/

&DEVC QUANTITY='CONVECTIVE HEAT FLUX',XB=0.36,0.36,0.76,0.76,0.36,1.82,POINTS=147,STATISTICS_START=104.5,STATISTICS_END=105.5,IOR=1,ID='CONVECTIVE_HEAT_FLUX_Y22_105'/
&DEVC QUANTITY='CONVECTIVE HEAT FLUX',XB=0.36,0.36,0.76,0.76,0.36,1.82,POINTS=147,STATISTICS_START=144.5,STATISTICS_END=145.5,IOR=1,ID='CONVECTIVE_HEAT_FLUX_Y22_145'/
&DEVC QUANTITY='CONVECTIVE HEAT FLUX',XB=0.36,0.36,0.76,0.76,0.36,1.82,POINTS=147,STATISTICS_START=184.5,STATISTICS_END=185.5,IOR=1,ID='CONVECTIVE_HEAT_FLUX_Y22_185'/

&DEVC QUANTITY='TEMPERATURE',XB=0.41,0.41,0.54,1.22,0.70,0.70,POINTS=68,STATISTICS_START=104.5,STATISTICS_END=105.5,IOR=2,ID='TEMPERATURE_x5_30'/
&DEVC QUANTITY='TEMPERATURE',XB=0.41,0.41,0.54,1.22,1.3,1.3,POINTS=68,STATISTICS_START=104.5,STATISTICS_END=105.5,IOR=2,ID='TEMPERATURE_x5_90'/
&DEVC QUANTITY='TEMPERATURE',XB=0.58,0.58,0.54,1.22,0.70,0.70,POINTS=68,STATISTICS_START=104.5,STATISTICS_END=105.5,IOR=2,ID='TEMPERATURE_x22_30'/
&DEVC QUANTITY='TEMPERATURE',XB=0.58,0.58,0.54,1.22,1.3,1.3,POINTS=68,STATISTICS_START=104.5,STATISTICS_END=105.5,IOR=2,ID='TEMPERATURE_x22_90'/


&DEVC QUANTITY='TEMPERATURE',XB=0.41,0.41,0.54,1.22,0.70,0.70,POINTS=68,STATISTICS_START=104,STATISTICS_END=106,TEMPORAL_STATISTIC='RMS',IOR=2,ID='TEMPERATURE_RMS_x5_30'/
&DEVC QUANTITY='TEMPERATURE',XB=0.41,0.41,0.54,1.22,1.3,1.3,POINTS=68,STATISTICS_START=104,STATISTICS_END=106,TEMPORAL_STATISTIC='RMS',IOR=2,ID='TEMPERATURE_RMS_x5_90'/
&DEVC QUANTITY='TEMPERATURE',XB=0.58,0.58,0.54,1.22,0.70,0.70,POINTS=68,STATISTICS_START=104,STATISTICS_END=106,TEMPORAL_STATISTIC='RMS',IOR=2,ID='TEMPERATURE_RMS_x22_30'/
&DEVC QUANTITY='TEMPERATURE',XB=0.58,0.58,0.54,1.22,1.3,1.3,POINTS=68,STATISTICS_START=104,STATISTICS_END=106,TEMPORAL_STATISTIC='RMS',IOR=2,ID='TEMPERATURE_RMS_x22_90'/

&DEVC QUANTITY='W-VELOCITY',XB=0.41,0.41,0.54,1.22,0.70,0.70,POINTS=68,STATISTICS_START=104.5,STATISTICS_END=105.5,IOR=2,ID='W-VELOCITY_x5_30'/
&DEVC QUANTITY='W-VELOCITY',XB=0.41,0.41,0.54,1.22,1.3,1.3,POINTS=68,STATISTICS_START=104.5,STATISTICS_END=105.5,IOR=2,ID='W-VELOCITY_x5_90'/
&DEVC QUANTITY='W-VELOCITY',XB=0.58,0.58,0.54,1.22,0.70,0.70,POINTS=68,STATISTICS_START=104.5,STATISTICS_END=105.5,IOR=2,ID='W-VELOCITY_x22_30'/
&DEVC QUANTITY='W-VELOCITY',XB=0.58,0.58,0.54,1.22,1.3,1.3,POINTS=68,STATISTICS_START=104.5,STATISTICS_END=105.5,IOR=2,ID='W-VELOCITY_x22_90'/


&DEVC QUANTITY='W-VELOCITY',XB=0.41,0.41,0.54,1.22,0.70,0.70,POINTS=68,STATISTICS_START=104,STATISTICS_END=106,TEMPORAL_STATISTIC='RMS',IOR=2,ID='W-VELOCITY_RMS_x5_30'/
&DEVC QUANTITY='W-VELOCITY',XB=0.41,0.41,0.54,1.22,1.3,1.3,POINTS=68,STATISTICS_START=104,STATISTICS_END=106,TEMPORAL_STATISTIC='RMS',IOR=2,ID='W-VELOCITY_RMS_x5_90'/
&DEVC QUANTITY='W-VELOCITY',XB=0.58,0.58,0.54,1.22,0.70,0.70,POINTS=68,STATISTICS_START=104,STATISTICS_END=106,TEMPORAL_STATISTIC='RMS',IOR=2,ID='W-VELOCITY_RMS_x22_30'/
&DEVC QUANTITY='W-VELOCITY',XB=0.58,0.58,0.54,1.22,1.3,1.3,POINTS=68,STATISTICS_START=104,STATISTICS_END=106,TEMPORAL_STATISTIC='RMS',IOR=2,ID='W-VELOCITY_RMS_x22_90'/


&DEVC QUANTITY='TEMPERATURE',XB=0.41,0.41,0.54,1.22,0.70,0.70,POINTS=68,STATISTICS_START=104.5,STATISTICS_END=105.5,IOR=1,ID='TEMPERATURE_Y5_30'/
&DEVC QUANTITY='TEMPERATURE',XB=0.41,0.41,0.54,1.22,1.3,1.3,POINTS=68,STATISTICS_START=104.5,STATISTICS_END=105.5,IOR=1,ID='TEMPERATURE_Y5_90'/
&DEVC QUANTITY='TEMPERATURE',XB=0.58,0.58,0.54,1.22,0.70,0.70,POINTS=68,STATISTICS_START=104.5,STATISTICS_END=105.5,IOR=1,ID='TEMPERATURE_Y22_30'/
&DEVC QUANTITY='TEMPERATURE',XB=0.58,0.58,0.54,1.22,1.3,1.3,POINTS=68,STATISTICS_START=104.5,STATISTICS_END=105.5,IOR=1,ID='TEMPERATURE_Y22_90'/


&DEVC QUANTITY='TEMPERATURE',XB=0.41,0.41,0.54,1.22,0.70,0.70,POINTS=68,STATISTICS_START=104,STATISTICS_END=106,TEMPORAL_STATISTIC='RMS',IOR=1,ID='TEMPERATURE_RMS_Y5_30'/
&DEVC QUANTITY='TEMPERATURE',XB=0.41,0.41,0.54,1.22,1.3,1.3,POINTS=68,STATISTICS_START=104,STATISTICS_END=106,TEMPORAL_STATISTIC='RMS',IOR=1,ID='TEMPERATURE_RMS_Y5_90'/
&DEVC QUANTITY='TEMPERATURE',XB=0.58,0.58,0.54,1.22,0.70,0.70,POINTS=68,STATISTICS_START=104,STATISTICS_END=106,TEMPORAL_STATISTIC='RMS',IOR=1,ID='TEMPERATURE_RMS_Y22_30'/
&DEVC QUANTITY='TEMPERATURE',XB=0.58,0.58,0.54,1.22,1.3,1.3,POINTS=68,STATISTICS_START=104,STATISTICS_END=106,TEMPORAL_STATISTIC='RMS',IOR=1,ID='TEMPERATURE_RMS_Y22_90'/

&DEVC QUANTITY='W-VELOCITY',XB=0.41,0.41,0.54,1.22,0.70,0.70,POINTS=68,STATISTICS_START=104.5,STATISTICS_END=105.5,IOR=1,ID='W-VELOCITY_Y5_30'/
&DEVC QUANTITY='W-VELOCITY',XB=0.41,0.41,0.54,1.22,1.3,1.3,POINTS=68,STATISTICS_START=104.5,STATISTICS_END=105.5,IOR=1,ID='W-VELOCITY_Y5_90'/
&DEVC QUANTITY='W-VELOCITY',XB=0.58,0.58,0.54,1.22,0.70,0.70,POINTS=68,STATISTICS_START=104.5,STATISTICS_END=105.5,IOR=1,ID='W-VELOCITY_Y22_30'/
&DEVC QUANTITY='W-VELOCITY',XB=0.58,0.58,0.54,1.22,1.3,1.3,POINTS=68,STATISTICS_START=104,STATISTICS_END=105.5,IOR=1,ID='W-VELOCITY_Y22_90'/


&DEVC QUANTITY='W-VELOCITY',XB=0.41,0.41,0.54,1.22,0.70,0.70,POINTS=68,STATISTICS_START=104,STATISTICS_END=106,TEMPORAL_STATISTIC='RMS',IOR=1,ID='W-VELOCITY_RMS_Y5_30'/
&DEVC QUANTITY='W-VELOCITY',XB=0.41,0.41,0.54,1.22,1.3,1.3,POINTS=68,STATISTICS_START=104,STATISTICS_END=106,TEMPORAL_STATISTIC='RMS',IOR=1,ID='W-VELOCITY_RMS_Y5_90'/
&DEVC QUANTITY='W-VELOCITY',XB=0.58,0.58,0.54,1.22,0.70,0.70,POINTS=68,STATISTICS_START=104,STATISTICS_END=106,TEMPORAL_STATISTIC='RMS',IOR=1,ID='W-VELOCITY_RMS_Y22_30'/
&DEVC QUANTITY='W-VELOCITY',XB=0.58,0.58,0.54,1.22,1.3,1.3,POINTS=68,STATISTICS_START=104,STATISTICS_END=106,TEMPORAL_STATISTIC='RMS',IOR=1,ID='W-VELOCITY_RMS_Y22_90'/


&TAIL /
