
 Fire Dynamics Simulator

 Current Date     : August 19, 2023  13:32:50
 Revision         : FDS-6.8.0-564-g879930a-master
 Revision Date    : Wed Aug 16 13:01:02 2023 -0400
 Compiler         : ifort version 2021.7.1
 Compilation Date : Aug 16, 2023 16:23:58

 MPI Enabled;    Number of MPI Processes:     128
 OpenMP Disabled

 MPI version: 3.1
 MPI library version: Intel(R) MPI Library 2021.7 for Linux* OS


 Job TITLE        : (Concatenated) NIST Methanol Pool, 1 m pan, 5 cm resolution
 Job ID string    : NIST_Methanol_1m_GEOM_Predicted_5cm_cat


 Miscellaneous Parameters

   Simulation Start Time (s)          0.0
   Simulation End Time (s)           60.0
   Background Pressure (Pa)     101325.00
   Ambient Temperature (C)          25.00

   3D Cartesian
   LES Calculation
   Eddy Viscosity Model:  Deardorff (C_DEARDORFF = 0.10)
   Surface INERT Eddy Viscosity Model:  WALE (C_WALE = 0.60)
   Surface PAN Eddy Viscosity Model:  WALE (C_WALE = 0.60)
   Surface POOL Eddy Viscosity Model:  WALE (C_WALE = 0.60)
   Turbulent Prandtl Number:         0.50
   Turbulent Schmidt Number:         0.50


 Pressure solver information

   Solver:                          ULMAT
   Velocity tolerance (m/s):    2.500E-02
   Press eqn res tol (1/s^2):   8.000E+03
   Max pressure iterations:            10


 Mass Fraction Transformation Matrix to Convert Species Mixtures (Columns) to Primitive Species (Rows)

                         AIR       METHANOL  INTERMED  PRODUCTS
   NITROGEN              0.760861  0.000000  0.520553  0.659393
   OXYGEN                0.230510  0.000000  0.000000  0.000000
   CARBON DIOXIDE        0.000590  0.000000  0.000404  0.183680
   WATER VAPOR           0.008039  0.000000  0.183077  0.156927
   CARBON MONOXIDE       0.000000  0.000000  0.276096  0.000000
   SOOT                  0.000000  0.000000  0.000000  0.000000
   HYDROGEN              0.000000  0.000000  0.019871  0.000000
   HYDROGEN CYANIDE      0.000000  0.000000  0.000000  0.000000
   METHANOL              0.000000  1.000000  0.000000  0.000000


 Primitive Species Information

   NITROGEN
   Gas Species
   Molecular Weight (g/mol)                28.01340
   Ambient Density (kg/m^3)                1.145
           Enthalpy of Formation (J/kg)  0.000E+00

   OXYGEN
   Gas Species
   Molecular Weight (g/mol)                31.99880
   Ambient Density (kg/m^3)                1.308
           Enthalpy of Formation (J/kg)  0.000E+00

   CARBON DIOXIDE
   Gas Species
   Molecular Weight (g/mol)                44.00950
   Ambient Density (kg/m^3)                1.799
           Enthalpy of Formation (J/kg) -8.941E+06

   WATER VAPOR
   Gas Species
   Molecular Weight (g/mol)                18.01528
   Ambient Density (kg/m^3)                0.736
           Enthalpy of Formation (J/kg) -1.342E+07

   CARBON MONOXIDE
   Gas Species
   Molecular Weight (g/mol)                28.01010
   Ambient Density (kg/m^3)                1.145
           Enthalpy of Formation (J/kg) -3.946E+06

   SOOT
   Gas Species
   Molecular Weight (g/mol)                12.01070
   Ambient Density (kg/m^3)                0.491
           Enthalpy of Formation (J/kg)  0.000E+00

   HYDROGEN
   Gas Species
   Molecular Weight (g/mol)                 2.01588
   Ambient Density (kg/m^3)                0.082
           Enthalpy of Formation (J/kg)  0.000E+00

   HYDROGEN CYANIDE
   Gas Species
   Molecular Weight (g/mol)                27.02534
   Ambient Density (kg/m^3)                1.105
           Enthalpy of Formation (J/kg)  4.924E+06

   METHANOL
   Gas Species
   Molecular Weight (g/mol)                32.04186
   Ambient Density (kg/m^3)                1.310
           Enthalpy of Formation (J/kg) -6.271E+06


 Tracked (Lumped) Species Information

   AIR
   Molecular Weight (g/mol)            28.71586
   Ambient Density (kg/m^3)            1.174
   Initial Mass Fraction               1.000
   Enthalpy of Formation (J/kg)     -1.132E+05

   Sub Species                    Mass Fraction     Mole Fraction
   NITROGEN                       7.608605E-01      7.799397E-01
   OXYGEN                         2.305098E-01      2.068605E-01
   CARBON DIOXIDE                 5.902165E-04      3.851117E-04
   WATER VAPOR                    8.039473E-03      1.281470E-02
 
     Viscosity (kg/m/s) Ambient,  298 K:  1.816E-05
                                  500 K:  2.610E-05
                                 1000 K:  4.124E-05
                                 1500 K:  5.371E-05
                                 2000 K:  6.476E-05
   Therm. Cond. (W/m/K) Ambient,  298 K:  2.587E-02
                                  500 K:  3.813E-02
                                 1000 K:  6.690E-02
                                 1500 K:  9.261E-02
                                 2000 K:  1.155E-01
        Enthalpy (J/kg) Ambient,  298 K: -1.132E+05
                                  500 K:  9.439E+04
                                 1000 K:  6.454E+05
                                 1500 K:  1.245E+06
                                 2000 K:  1.872E+06
    Spec. Heat (J/kg/K) Ambient,  298 K:  1.018E+03
                                  500 K:  1.044E+03
                                 1000 K:  1.158E+03
                                 1500 K:  1.232E+03
                                 2000 K:  1.273E+03
   Diff. Coeff. (m^2/s) Ambient,  298 K:  2.050E-05
                                  500 K:  4.964E-05
                                 1000 K:  1.582E-04
                                 1500 K:  3.098E-04
                                 2000 K:  4.989E-04
 Gibbs Energy Amb. (kJ/mol),  298 K: -6.020E+01
                                  500 K: -1.012E+02
                                 1000 K: -2.122E+02
                                 1500 K: -3.317E+02
                                 2000 K: -4.573E+02

   METHANOL
   Molecular Weight (g/mol)            32.04186
   Ambient Density (kg/m^3)            1.310
   Initial Mass Fraction               0.000
   Enthalpy of Formation (J/kg)     -6.271E+06

   Sub Species                    Mass Fraction     Mole Fraction
   METHANOL                       1.000000E+00      1.000000E+00
 
     Viscosity (kg/m/s) Ambient,  298 K:  9.670E-06
                                  500 K:  1.644E-05
                                 1000 K:  3.130E-05
                                 1500 K:  4.324E-05
                                 2000 K:  5.347E-05
   Therm. Cond. (W/m/K) Ambient,  298 K:  1.399E-02
                                  500 K:  3.224E-02
                                 1000 K:  9.206E-02
                                 1500 K:  1.497E-01
                                 2000 K:  2.000E-01
        Enthalpy (J/kg) Ambient,  298 K: -6.271E+06
                                  500 K: -5.946E+06
                                 1000 K: -4.758E+06
                                 1500 K: -3.224E+06
                                 2000 K: -1.507E+06
    Spec. Heat (J/kg/K) Ambient,  298 K:  1.374E+03
                                  500 K:  1.863E+03
                                 1000 K:  2.794E+03
                                 1500 K:  3.289E+03
                                 2000 K:  3.553E+03
   Diff. Coeff. (m^2/s) Ambient,  298 K:  1.557E-05
                                  500 K:  4.034E-05
                                 1000 K:  1.345E-04
                                 1500 K:  2.667E-04
                                 2000 K:  4.310E-04
 Gibbs Energy Amb. (kJ/mol),  298 K: -2.724E+02
                                  500 K: -3.236E+02
                                 1000 K: -4.702E+02
                                 1500 K: -6.394E+02
                                 2000 K: -8.262E+02

   INTERMEDIATE PRODUCTS
   Molecular Weight (g/mol)            20.63226
   Ambient Density (kg/m^3)            0.843
   Initial Mass Fraction               0.000
   Enthalpy of Formation (J/kg)     -3.551E+06

   Sub Species                    Mass Fraction     Mole Fraction
   NITROGEN                       5.205526E-01      3.833942E-01
   CARBON DIOXIDE                 4.038043E-04      1.893090E-04
   WATER VAPOR                    1.830771E-01      2.096717E-01
   CARBON MONOXIDE                2.760959E-01      2.033724E-01
   SOOT                           0.000000E+00      0.000000E+00
   HYDROGEN                       1.987055E-02      2.033724E-01
   HYDROGEN CYANIDE               0.000000E+00      0.000000E+00
 
     Viscosity (kg/m/s) Ambient,  298 K:  1.558E-05
                                  500 K:  2.282E-05
                                 1000 K:  3.759E-05
                                 1500 K:  5.003E-05
                                 2000 K:  6.101E-05
   Therm. Cond. (W/m/K) Ambient,  298 K:  3.500E-02
                                  500 K:  5.194E-02
                                 1000 K:  9.295E-02
                                 1500 K:  1.337E-01
                                 2000 K:  1.717E-01
        Enthalpy (J/kg) Ambient,  298 K: -3.551E+06
                                  500 K: -3.254E+06
                                 1000 K: -2.470E+06
                                 1500 K: -1.606E+06
                                 2000 K: -6.832E+05
    Spec. Heat (J/kg/K) Ambient,  298 K:  1.454E+03
                                  500 K:  1.490E+03
                                 1000 K:  1.652E+03
                                 1500 K:  1.794E+03
                                 2000 K:  1.890E+03
   Diff. Coeff. (m^2/s) Ambient,  298 K:  3.176E-05
                                  500 K:  7.771E-05
                                 1000 K:  2.498E-04
                                 1500 K:  4.907E-04
                                 2000 K:  7.912E-04
 Gibbs Energy Amb. (kJ/mol),  298 K: -1.320E+02
                                  500 K: -1.724E+02
                                 1000 K: -2.822E+02
                                 1500 K: -4.008E+02
                                 2000 K: -5.256E+02

   PRODUCTS
   Molecular Weight (g/mol)            27.45525
   Ambient Density (kg/m^3)            1.122
   Initial Mass Fraction               0.000
   Enthalpy of Formation (J/kg)     -3.749E+06

   Sub Species                    Mass Fraction     Mole Fraction
   NITROGEN                       6.593931E-01      6.462551E-01
   CARBON DIOXIDE                 1.836798E-01      1.145883E-01
   WATER VAPOR                    1.569271E-01      2.391566E-01
   CARBON MONOXIDE                0.000000E+00      0.000000E+00
   SOOT                           0.000000E+00      0.000000E+00
   HYDROGEN CYANIDE               0.000000E+00      0.000000E+00
 
     Viscosity (kg/m/s) Ambient,  298 K:  1.589E-05
                                  500 K:  2.343E-05
                                 1000 K:  3.872E-05
                                 1500 K:  5.151E-05
                                 2000 K:  6.275E-05
   Therm. Cond. (W/m/K) Ambient,  298 K:  2.335E-02
                                  500 K:  3.599E-02
                                 1000 K:  6.820E-02
                                 1500 K:  9.925E-02
                                 2000 K:  1.274E-01
        Enthalpy (J/kg) Ambient,  298 K: -3.749E+06
                                  500 K: -3.515E+06
                                 1000 K: -2.878E+06
                                 1500 K: -2.167E+06
                                 2000 K: -1.410E+06
    Spec. Heat (J/kg/K) Ambient,  298 K:  1.133E+03
                                  500 K:  1.189E+03
                                 1000 K:  1.356E+03
                                 1500 K:  1.476E+03
                                 2000 K:  1.549E+03
   Diff. Coeff. (m^2/s) Ambient,  298 K:  2.019E-05
                                  500 K:  5.015E-05
                                 1000 K:  1.630E-04
                                 1500 K:  3.211E-04
                                 2000 K:  5.183E-04
 Gibbs Energy Amb. (kJ/mol),  298 K: -1.684E+02
                                  500 K: -2.097E+02
                                 1000 K: -3.223E+02
                                 1500 K: -4.448E+02
                                 2000 K: -5.742E+02


 Gas Phase Reaction Information

   Reaction 1

      Priority:                                                               1

      Fuel                                           Heat of Combustion (kJ/kg)
      METHANOL                                                        4725.7305
      2-step reaction,  Total Heat of Combustion                     21104.3304

      Primitive Species Stoich. Coeff.
      Species ID                                                          Molar
      OXYGEN                                                          -0.500000
      WATER VAPOR                                                      1.000000
      CARBON MONOXIDE                                                  1.000000
      HYDROGEN                                                         1.000000
      METHANOL                                                        -1.000000

      Tracked (Lumped) Species Stoich. Coeff.
      Species ID                                             Molar         Mass
      AIR                                                -2.417088    -2.166190
      METHANOL                                           -1.000000    -1.000000
      INTERMEDIATE PRODUCTS                               4.917088     3.166190

      Reaction Kinetics

      Fast chemistry

      ODE Solver:  EXPLICIT EULER

      Extinction Model:  EXTINCTION 2
      Auto-Ignition Temperature (C):            -273.1
      Critical Flame Temperature (C):           1257.0

      Prescribed Radiative Fraction:             0.210

   Reaction 2

      Priority:                                                               2

      Fuel                                           Heat of Combustion (kJ/kg)
      INTERMEDIATE PRODUCTS                                           5172.9678

      Primitive Species Stoich. Coeff.
      Species ID                                                          Molar
      OXYGEN                                                          -0.203372
      CARBON DIOXIDE                                                   0.203372
      WATER VAPOR                                                      0.203372
      CARBON MONOXIDE                                                 -0.203372
      HYDROGEN                                                        -0.203372

      Tracked (Lumped) Species Stoich. Coeff.
      Species ID                                             Molar         Mass
      AIR                                                -0.983138    -1.368326
      INTERMEDIATE PRODUCTS                              -1.000000    -1.000000
      PRODUCTS                                            1.779766     2.368326

      Reaction Kinetics

      Fast chemistry

      ODE Solver:  EXPLICIT EULER

      Prescribed Radiative Fraction:             0.210


 Material Information

   1 STEEL
     Emissivity:                                  0.800
     Density (kg/m3):                            7800.0
     Specific Heat (kJ/kg/K) Ambient,  298 K:  4.650E-01
                                       350 K:  4.650E-01
                                       500 K:  4.650E-01
                                       800 K:  4.650E-01
     Therm. Cond. (W/m/K) Ambient,     298 K:  5.400E+01
                                       350 K:  5.400E+01
                                       500 K:  5.400E+01
                                       800 K:  5.400E+01
     Enthalpy (kJ/kg) Ambient,         298 K:  1.386E+02
                                       350 K:  1.628E+02
                                       500 K:  2.325E+02
                                       800 K:  3.720E+02

   2 METHANOL LIQUID
     Emissivity:                                  1.000
     Density (kg/m3):                             796.0
     Specific Heat (kJ/kg/K) Ambient,  298 K:  2.480E+00
                                       350 K:  2.480E+00
                                       500 K:  2.480E+00
                                       800 K:  2.480E+00
     Therm. Cond. (W/m/K) Ambient,     298 K:  2.000E-01
                                       350 K:  2.000E-01
                                       500 K:  2.000E-01
                                       800 K:  2.000E-01
     Enthalpy (kJ/kg) Ambient,         298 K: -7.413E+03
                                       350 K: -7.284E+03
                                       500 K: -6.912E+03
                                       800 K: -6.168E+03
     Absorption coefficient (1/m)  1500.00
     Liquid evaporation reaction
        Gaseous Yields:
        AIR                                                         :     0.00
        METHANOL                                                    :     1.00
        INTERMEDIATE PRODUCTS                                       :     0.00
        PRODUCTS                                                    :     0.00
        Boiling temperature (C):    64.65
        H_R (kJ/kg)            :  1.141E+03


 Surface Conditions

   0 INERT (DEFAULT)

   1 PAN
     Material List
          1  STEEL
     Layer  1
        Thickness   (m):  0.00300
        Density (kg/m3):  7800.00
        STEEL, Mass fraction:    1.00
     Reaction products considered from the first  0.50 layers.
     Total surface density    23.400 kg/m2
     Solid Phase Node, Layer, Coordinates(m):
                    0      1       0.0000000
                    1      1       0.0030000
     Exposed Backing

   2 POOL
     Material List
          1  METHANOL LIQUID
     Layer  1
        Thickness   (m):  0.15000
        Density (kg/m3):   796.00
        METHANOL LIQUID, Mass fraction:    1.00
     Reaction products considered from the first  0.50 layers.
     Total surface density   119.400 kg/m2
     Solid Phase Node, Layer, Coordinates(m):
                    0      1       0.0000000
                    1      1       0.0002941
                    2      1       0.0008824
                    3      1       0.0020588
                    4      1       0.0044118
                    5      1       0.0091176
                    6      1       0.0185294
                    7      1       0.0373529
                    8      1       0.0750000
                    9      1       0.1126471
                   10      1       0.1314706
                   11      1       0.1408824
                   12      1       0.1455882
                   13      1       0.1479412
                   14      1       0.1491176
                   15      1       0.1497059
                   16      1       0.1500000
     Exposed Backing

   3 OPEN
     Passive Vent to Atmosphere

   4 MIRROR
     Symmetry Plane

   5 INTERPOLATED

   6 PERIODIC

   7 HVAC

   8 MASSLESS TRACER

   9 DROPLET

  10 MASSLESS TARGET

  11 PERIODIC FLOW ONLY


 Lagrangian Particle Classes

   1 RESERVED TARGET PARTICLE
     SURFace ID: MASSLESS TARGET
     # Reals: 690
     # Integers: 24
     # Logicals: 5


 PROPerty Information

   1 TC
     Smokeview ID                sensor


 Cut-off Density and Temperature

    Minimum Temperature:  -259.1 C
    Maximum Temperature:  2726.8 C
    Minimum Density:  1.174E-01 kg/m3
    Maximum Density:  5.578E+01 kg/m3


 Device Information

   1 ID: MLRPUA
     QUANTITY: BURNING RATE
     Coordinates (X,Y,Z):   -5.000000E-04   -5.000000E-04    4.500000E-02
     SPATIAL STATISTIC: MEAN
     TEMPORAL STATISTIC: TIME AVERAGE
   2 ID: HEAT_FLUX
     QUANTITY: TOTAL HEAT FLUX
     Coordinates (X,Y,Z):   -5.000000E-04   -5.000000E-04    4.500000E-02
     SPATIAL STATISTIC: MEAN
     TEMPORAL STATISTIC: TIME AVERAGE
   3 ID: MLRPUA_ideal
     QUANTITY: TOTAL HEAT FLUX
     Coordinates (X,Y,Z):   -5.000000E-04   -5.000000E-04    4.500000E-02
     SPATIAL STATISTIC: MEAN
     TEMPORAL STATISTIC: TIME AVERAGE
   4 ID: T_SURF_MEAN
     QUANTITY: WALL TEMPERATURE
     Coordinates (X,Y,Z):   -5.000000E-04   -5.000000E-04    4.500000E-02
     SPATIAL STATISTIC: MEAN
     TEMPORAL STATISTIC: TIME AVERAGE
   5 ID: T_SURF_MAX
     QUANTITY: WALL TEMPERATURE
     Coordinates (X,Y,Z):   -5.000000E-04   -5.000000E-04    4.500000E-02
     SPATIAL STATISTIC: MAX
     TEMPORAL STATISTIC: TIME AVERAGE
   6 ID: T_CL
     QUANTITY: THERMOCOUPLE
     Coordinates (X,Y,Z):    1.000000E-03    1.000000E-03    5.000000E-03
     TEMPORAL STATISTIC: RUNNING AVERAGE
  Property ID: TC
   7 ID: T_CL
     QUANTITY: THERMOCOUPLE
     Coordinates (X,Y,Z):    1.000000E-03    1.000000E-03    4.462264E-02
     TEMPORAL STATISTIC: RUNNING AVERAGE
  Property ID: TC
   8 ID: T_CL
     QUANTITY: THERMOCOUPLE
     Coordinates (X,Y,Z):    1.000000E-03    1.000000E-03    8.424528E-02
     TEMPORAL STATISTIC: RUNNING AVERAGE
  Property ID: TC
   9 ID: T_CL
     QUANTITY: THERMOCOUPLE
     Coordinates (X,Y,Z):    1.000000E-03    1.000000E-03    1.238679E-01
     TEMPORAL STATISTIC: RUNNING AVERAGE
  Property ID: TC
  10 ID: T_CL
     QUANTITY: THERMOCOUPLE
     Coordinates (X,Y,Z):    1.000000E-03    1.000000E-03    1.634906E-01
     TEMPORAL STATISTIC: RUNNING AVERAGE
  Property ID: TC
  11 ID: T_CL
     QUANTITY: THERMOCOUPLE
     Coordinates (X,Y,Z):    1.000000E-03    1.000000E-03    2.031132E-01
     TEMPORAL STATISTIC: RUNNING AVERAGE
  Property ID: TC
  12 ID: T_CL
     QUANTITY: THERMOCOUPLE
     Coordinates (X,Y,Z):    1.000000E-03    1.000000E-03    2.427358E-01
     TEMPORAL STATISTIC: RUNNING AVERAGE
  Property ID: TC
  13 ID: T_CL
     QUANTITY: THERMOCOUPLE
     Coordinates (X,Y,Z):    1.000000E-03    1.000000E-03    2.823585E-01
     TEMPORAL STATISTIC: RUNNING AVERAGE
  Property ID: TC
  14 ID: T_CL
     QUANTITY: THERMOCOUPLE
     Coordinates (X,Y,Z):    1.000000E-03    1.000000E-03    3.219811E-01
     TEMPORAL STATISTIC: RUNNING AVERAGE
  Property ID: TC
  15 ID: T_CL
     QUANTITY: THERMOCOUPLE
     Coordinates (X,Y,Z):    1.000000E-03    1.000000E-03    3.616038E-01
     TEMPORAL STATISTIC: RUNNING AVERAGE
  Property ID: TC
  16 ID: T_CL
     QUANTITY: THERMOCOUPLE
     Coordinates (X,Y,Z):    1.000000E-03    1.000000E-03    4.012264E-01
     TEMPORAL STATISTIC: RUNNING AVERAGE
  Property ID: TC
  17 ID: T_CL
     QUANTITY: THERMOCOUPLE
     Coordinates (X,Y,Z):    1.000000E-03    1.000000E-03    4.408491E-01
     TEMPORAL STATISTIC: RUNNING AVERAGE
  Property ID: TC
  18 ID: T_CL
     QUANTITY: THERMOCOUPLE
     Coordinates (X,Y,Z):    1.000000E-03    1.000000E-03    4.804717E-01
     TEMPORAL STATISTIC: RUNNING AVERAGE
  Property ID: TC
  19 ID: T_CL
     QUANTITY: THERMOCOUPLE
     Coordinates (X,Y,Z):    1.000000E-03    1.000000E-03    5.200943E-01
     TEMPORAL STATISTIC: RUNNING AVERAGE
  Property ID: TC
  20 ID: T_CL
     QUANTITY: THERMOCOUPLE
     Coordinates (X,Y,Z):    1.000000E-03    1.000000E-03    5.597170E-01
     TEMPORAL STATISTIC: RUNNING AVERAGE
  Property ID: TC
  21 ID: T_CL
     QUANTITY: THERMOCOUPLE
     Coordinates (X,Y,Z):    1.000000E-03    1.000000E-03    5.993396E-01
     TEMPORAL STATISTIC: RUNNING AVERAGE
  Property ID: TC
  22 ID: T_CL
     QUANTITY: THERMOCOUPLE
     Coordinates (X,Y,Z):    1.000000E-03    1.000000E-03    6.389623E-01
     TEMPORAL STATISTIC: RUNNING AVERAGE
  Property ID: TC
  23 ID: T_CL
     QUANTITY: THERMOCOUPLE
     Coordinates (X,Y,Z):    1.000000E-03    1.000000E-03    6.785849E-01
     TEMPORAL STATISTIC: RUNNING AVERAGE
  Property ID: TC
  24 ID: T_CL
     QUANTITY: THERMOCOUPLE
     Coordinates (X,Y,Z):    1.000000E-03    1.000000E-03    7.182075E-01
     TEMPORAL STATISTIC: RUNNING AVERAGE
  Property ID: TC
  25 ID: T_CL
     QUANTITY: THERMOCOUPLE
     Coordinates (X,Y,Z):    1.000000E-03    1.000000E-03    7.578302E-01
     TEMPORAL STATISTIC: RUNNING AVERAGE
  Property ID: TC
  26 ID: T_CL
     QUANTITY: THERMOCOUPLE
     Coordinates (X,Y,Z):    1.000000E-03    1.000000E-03    7.974528E-01
     TEMPORAL STATISTIC: RUNNING AVERAGE
  Property ID: TC
  27 ID: T_CL
     QUANTITY: THERMOCOUPLE
     Coordinates (X,Y,Z):    1.000000E-03    1.000000E-03    8.370755E-01
     TEMPORAL STATISTIC: RUNNING AVERAGE
  Property ID: TC
  28 ID: T_CL
     QUANTITY: THERMOCOUPLE
     Coordinates (X,Y,Z):    1.000000E-03    1.000000E-03    8.766981E-01
     TEMPORAL STATISTIC: RUNNING AVERAGE
  Property ID: TC
  29 ID: T_CL
     QUANTITY: THERMOCOUPLE
     Coordinates (X,Y,Z):    1.000000E-03    1.000000E-03    9.163208E-01
     TEMPORAL STATISTIC: RUNNING AVERAGE
  Property ID: TC
  30 ID: T_CL
     QUANTITY: THERMOCOUPLE
     Coordinates (X,Y,Z):    1.000000E-03    1.000000E-03    9.559434E-01
     TEMPORAL STATISTIC: RUNNING AVERAGE
  Property ID: TC
  31 ID: T_CL
     QUANTITY: THERMOCOUPLE
     Coordinates (X,Y,Z):    1.000000E-03    1.000000E-03    9.955660E-01
     TEMPORAL STATISTIC: RUNNING AVERAGE
  Property ID: TC
  32 ID: T_CL
     QUANTITY: THERMOCOUPLE
     Coordinates (X,Y,Z):    1.000000E-03    1.000000E-03    1.035189E+00
     TEMPORAL STATISTIC: RUNNING AVERAGE
  Property ID: TC
  33 ID: T_CL
     QUANTITY: THERMOCOUPLE
     Coordinates (X,Y,Z):    1.000000E-03    1.000000E-03    1.074811E+00
     TEMPORAL STATISTIC: RUNNING AVERAGE
  Property ID: TC
  34 ID: T_CL
     QUANTITY: THERMOCOUPLE
     Coordinates (X,Y,Z):    1.000000E-03    1.000000E-03    1.114434E+00
     TEMPORAL STATISTIC: RUNNING AVERAGE
  Property ID: TC
  35 ID: T_CL
     QUANTITY: THERMOCOUPLE
     Coordinates (X,Y,Z):    1.000000E-03    1.000000E-03    1.154057E+00
     TEMPORAL STATISTIC: RUNNING AVERAGE
  Property ID: TC
  36 ID: T_CL
     QUANTITY: THERMOCOUPLE
     Coordinates (X,Y,Z):    1.000000E-03    1.000000E-03    1.193679E+00
     TEMPORAL STATISTIC: RUNNING AVERAGE
  Property ID: TC
  37 ID: T_CL
     QUANTITY: THERMOCOUPLE
     Coordinates (X,Y,Z):    1.000000E-03    1.000000E-03    1.233302E+00
     TEMPORAL STATISTIC: RUNNING AVERAGE
  Property ID: TC
  38 ID: T_CL
     QUANTITY: THERMOCOUPLE
     Coordinates (X,Y,Z):    1.000000E-03    1.000000E-03    1.272925E+00
     TEMPORAL STATISTIC: RUNNING AVERAGE
  Property ID: TC
  39 ID: T_CL
     QUANTITY: THERMOCOUPLE
     Coordinates (X,Y,Z):    1.000000E-03    1.000000E-03    1.312547E+00
     TEMPORAL STATISTIC: RUNNING AVERAGE
  Property ID: TC
  40 ID: T_CL
     QUANTITY: THERMOCOUPLE
     Coordinates (X,Y,Z):    1.000000E-03    1.000000E-03    1.352170E+00
     TEMPORAL STATISTIC: RUNNING AVERAGE
  Property ID: TC
  41 ID: T_CL
     QUANTITY: THERMOCOUPLE
     Coordinates (X,Y,Z):    1.000000E-03    1.000000E-03    1.391792E+00
     TEMPORAL STATISTIC: RUNNING AVERAGE
  Property ID: TC
  42 ID: T_CL
     QUANTITY: THERMOCOUPLE
     Coordinates (X,Y,Z):    1.000000E-03    1.000000E-03    1.431415E+00
     TEMPORAL STATISTIC: RUNNING AVERAGE
  Property ID: TC
  43 ID: T_CL
     QUANTITY: THERMOCOUPLE
     Coordinates (X,Y,Z):    1.000000E-03    1.000000E-03    1.471038E+00
     TEMPORAL STATISTIC: RUNNING AVERAGE
  Property ID: TC
  44 ID: T_CL
     QUANTITY: THERMOCOUPLE
     Coordinates (X,Y,Z):    1.000000E-03    1.000000E-03    1.510660E+00
     TEMPORAL STATISTIC: RUNNING AVERAGE
  Property ID: TC
  45 ID: T_CL
     QUANTITY: THERMOCOUPLE
     Coordinates (X,Y,Z):    1.000000E-03    1.000000E-03    1.550283E+00
     TEMPORAL STATISTIC: RUNNING AVERAGE
  Property ID: TC
  46 ID: T_CL
     QUANTITY: THERMOCOUPLE
     Coordinates (X,Y,Z):    1.000000E-03    1.000000E-03    1.589906E+00
     TEMPORAL STATISTIC: RUNNING AVERAGE
  Property ID: TC
  47 ID: T_CL
     QUANTITY: THERMOCOUPLE
     Coordinates (X,Y,Z):    1.000000E-03    1.000000E-03    1.629528E+00
     TEMPORAL STATISTIC: RUNNING AVERAGE
  Property ID: TC
  48 ID: T_CL
     QUANTITY: THERMOCOUPLE
     Coordinates (X,Y,Z):    1.000000E-03    1.000000E-03    1.669151E+00
     TEMPORAL STATISTIC: RUNNING AVERAGE
  Property ID: TC
  49 ID: T_CL
     QUANTITY: THERMOCOUPLE
     Coordinates (X,Y,Z):    1.000000E-03    1.000000E-03    1.708774E+00
     TEMPORAL STATISTIC: RUNNING AVERAGE
  Property ID: TC
  50 ID: T_CL
     QUANTITY: THERMOCOUPLE
     Coordinates (X,Y,Z):    1.000000E-03    1.000000E-03    1.748396E+00
     TEMPORAL STATISTIC: RUNNING AVERAGE
  Property ID: TC
  51 ID: T_CL
     QUANTITY: THERMOCOUPLE
     Coordinates (X,Y,Z):    1.000000E-03    1.000000E-03    1.788019E+00
     TEMPORAL STATISTIC: RUNNING AVERAGE
  Property ID: TC
  52 ID: T_CL
     QUANTITY: THERMOCOUPLE
     Coordinates (X,Y,Z):    1.000000E-03    1.000000E-03    1.827642E+00
     TEMPORAL STATISTIC: RUNNING AVERAGE
  Property ID: TC
  53 ID: T_CL
     QUANTITY: THERMOCOUPLE
     Coordinates (X,Y,Z):    1.000000E-03    1.000000E-03    1.867264E+00
     TEMPORAL STATISTIC: RUNNING AVERAGE
  Property ID: TC
  54 ID: T_CL
     QUANTITY: THERMOCOUPLE
     Coordinates (X,Y,Z):    1.000000E-03    1.000000E-03    1.906887E+00
     TEMPORAL STATISTIC: RUNNING AVERAGE
  Property ID: TC
  55 ID: T_CL
     QUANTITY: THERMOCOUPLE
     Coordinates (X,Y,Z):    1.000000E-03    1.000000E-03    1.946509E+00
     TEMPORAL STATISTIC: RUNNING AVERAGE
  Property ID: TC
  56 ID: T_CL
     QUANTITY: THERMOCOUPLE
     Coordinates (X,Y,Z):    1.000000E-03    1.000000E-03    1.986132E+00
     TEMPORAL STATISTIC: RUNNING AVERAGE
  Property ID: TC
  57 ID: T_CL
     QUANTITY: THERMOCOUPLE
     Coordinates (X,Y,Z):    1.000000E-03    1.000000E-03    2.025755E+00
     TEMPORAL STATISTIC: RUNNING AVERAGE
  Property ID: TC
  58 ID: T_CL
     QUANTITY: THERMOCOUPLE
     Coordinates (X,Y,Z):    1.000000E-03    1.000000E-03    2.065377E+00
     TEMPORAL STATISTIC: RUNNING AVERAGE
  Property ID: TC
  59 ID: T_CL
     QUANTITY: THERMOCOUPLE
     Coordinates (X,Y,Z):    1.000000E-03    1.000000E-03    2.105000E+00
     TEMPORAL STATISTIC: RUNNING AVERAGE
  Property ID: TC
  60 ID: T_CL_RMS
     QUANTITY: THERMOCOUPLE
     Coordinates (X,Y,Z):    1.000000E-03    1.000000E-03    5.000000E-03
     TEMPORAL STATISTIC: RMS
  Property ID: TC
  61 ID: T_CL_RMS
     QUANTITY: THERMOCOUPLE
     Coordinates (X,Y,Z):    1.000000E-03    1.000000E-03    4.462264E-02
     TEMPORAL STATISTIC: RMS
  Property ID: TC
  62 ID: T_CL_RMS
     QUANTITY: THERMOCOUPLE
     Coordinates (X,Y,Z):    1.000000E-03    1.000000E-03    8.424528E-02
     TEMPORAL STATISTIC: RMS
  Property ID: TC
  63 ID: T_CL_RMS
     QUANTITY: THERMOCOUPLE
     Coordinates (X,Y,Z):    1.000000E-03    1.000000E-03    1.238679E-01
     TEMPORAL STATISTIC: RMS
  Property ID: TC
  64 ID: T_CL_RMS
     QUANTITY: THERMOCOUPLE
     Coordinates (X,Y,Z):    1.000000E-03    1.000000E-03    1.634906E-01
     TEMPORAL STATISTIC: RMS
  Property ID: TC
  65 ID: T_CL_RMS
     QUANTITY: THERMOCOUPLE
     Coordinates (X,Y,Z):    1.000000E-03    1.000000E-03    2.031132E-01
     TEMPORAL STATISTIC: RMS
  Property ID: TC
  66 ID: T_CL_RMS
     QUANTITY: THERMOCOUPLE
     Coordinates (X,Y,Z):    1.000000E-03    1.000000E-03    2.427358E-01
     TEMPORAL STATISTIC: RMS
  Property ID: TC
  67 ID: T_CL_RMS
     QUANTITY: THERMOCOUPLE
     Coordinates (X,Y,Z):    1.000000E-03    1.000000E-03    2.823585E-01
     TEMPORAL STATISTIC: RMS
  Property ID: TC
  68 ID: T_CL_RMS
     QUANTITY: THERMOCOUPLE
     Coordinates (X,Y,Z):    1.000000E-03    1.000000E-03    3.219811E-01
     TEMPORAL STATISTIC: RMS
  Property ID: TC
  69 ID: T_CL_RMS
     QUANTITY: THERMOCOUPLE
     Coordinates (X,Y,Z):    1.000000E-03    1.000000E-03    3.616038E-01
     TEMPORAL STATISTIC: RMS
  Property ID: TC
  70 ID: T_CL_RMS
     QUANTITY: THERMOCOUPLE
     Coordinates (X,Y,Z):    1.000000E-03    1.000000E-03    4.012264E-01
     TEMPORAL STATISTIC: RMS
  Property ID: TC
  71 ID: T_CL_RMS
     QUANTITY: THERMOCOUPLE
     Coordinates (X,Y,Z):    1.000000E-03    1.000000E-03    4.408491E-01
     TEMPORAL STATISTIC: RMS
  Property ID: TC
  72 ID: T_CL_RMS
     QUANTITY: THERMOCOUPLE
     Coordinates (X,Y,Z):    1.000000E-03    1.000000E-03    4.804717E-01
     TEMPORAL STATISTIC: RMS
  Property ID: TC
  73 ID: T_CL_RMS
     QUANTITY: THERMOCOUPLE
     Coordinates (X,Y,Z):    1.000000E-03    1.000000E-03    5.200943E-01
     TEMPORAL STATISTIC: RMS
  Property ID: TC
  74 ID: T_CL_RMS
     QUANTITY: THERMOCOUPLE
     Coordinates (X,Y,Z):    1.000000E-03    1.000000E-03    5.597170E-01
     TEMPORAL STATISTIC: RMS
  Property ID: TC
  75 ID: T_CL_RMS
     QUANTITY: THERMOCOUPLE
     Coordinates (X,Y,Z):    1.000000E-03    1.000000E-03    5.993396E-01
     TEMPORAL STATISTIC: RMS
  Property ID: TC
  76 ID: T_CL_RMS
     QUANTITY: THERMOCOUPLE
     Coordinates (X,Y,Z):    1.000000E-03    1.000000E-03    6.389623E-01
     TEMPORAL STATISTIC: RMS
  Property ID: TC
  77 ID: T_CL_RMS
     QUANTITY: THERMOCOUPLE
     Coordinates (X,Y,Z):    1.000000E-03    1.000000E-03    6.785849E-01
     TEMPORAL STATISTIC: RMS
  Property ID: TC
  78 ID: T_CL_RMS
     QUANTITY: THERMOCOUPLE
     Coordinates (X,Y,Z):    1.000000E-03    1.000000E-03    7.182075E-01
     TEMPORAL STATISTIC: RMS
  Property ID: TC
  79 ID: T_CL_RMS
     QUANTITY: THERMOCOUPLE
     Coordinates (X,Y,Z):    1.000000E-03    1.000000E-03    7.578302E-01
     TEMPORAL STATISTIC: RMS
  Property ID: TC
  80 ID: T_CL_RMS
     QUANTITY: THERMOCOUPLE
     Coordinates (X,Y,Z):    1.000000E-03    1.000000E-03    7.974528E-01
     TEMPORAL STATISTIC: RMS
  Property ID: TC
  81 ID: T_CL_RMS
     QUANTITY: THERMOCOUPLE
     Coordinates (X,Y,Z):    1.000000E-03    1.000000E-03    8.370755E-01
     TEMPORAL STATISTIC: RMS
  Property ID: TC
  82 ID: T_CL_RMS
     QUANTITY: THERMOCOUPLE
     Coordinates (X,Y,Z):    1.000000E-03    1.000000E-03    8.766981E-01
     TEMPORAL STATISTIC: RMS
  Property ID: TC
  83 ID: T_CL_RMS
     QUANTITY: THERMOCOUPLE
     Coordinates (X,Y,Z):    1.000000E-03    1.000000E-03    9.163208E-01
     TEMPORAL STATISTIC: RMS
  Property ID: TC
  84 ID: T_CL_RMS
     QUANTITY: THERMOCOUPLE
     Coordinates (X,Y,Z):    1.000000E-03    1.000000E-03    9.559434E-01
     TEMPORAL STATISTIC: RMS
  Property ID: TC
  85 ID: T_CL_RMS
     QUANTITY: THERMOCOUPLE
     Coordinates (X,Y,Z):    1.000000E-03    1.000000E-03    9.955660E-01
     TEMPORAL STATISTIC: RMS
  Property ID: TC
  86 ID: T_CL_RMS
     QUANTITY: THERMOCOUPLE
     Coordinates (X,Y,Z):    1.000000E-03    1.000000E-03    1.035189E+00
     TEMPORAL STATISTIC: RMS
  Property ID: TC
  87 ID: T_CL_RMS
     QUANTITY: THERMOCOUPLE
     Coordinates (X,Y,Z):    1.000000E-03    1.000000E-03    1.074811E+00
     TEMPORAL STATISTIC: RMS
  Property ID: TC
  88 ID: T_CL_RMS
     QUANTITY: THERMOCOUPLE
     Coordinates (X,Y,Z):    1.000000E-03    1.000000E-03    1.114434E+00
     TEMPORAL STATISTIC: RMS
  Property ID: TC
  89 ID: T_CL_RMS
     QUANTITY: THERMOCOUPLE
     Coordinates (X,Y,Z):    1.000000E-03    1.000000E-03    1.154057E+00
     TEMPORAL STATISTIC: RMS
  Property ID: TC
  90 ID: T_CL_RMS
     QUANTITY: THERMOCOUPLE
     Coordinates (X,Y,Z):    1.000000E-03    1.000000E-03    1.193679E+00
     TEMPORAL STATISTIC: RMS
  Property ID: TC
  91 ID: T_CL_RMS
     QUANTITY: THERMOCOUPLE
     Coordinates (X,Y,Z):    1.000000E-03    1.000000E-03    1.233302E+00
     TEMPORAL STATISTIC: RMS
  Property ID: TC
  92 ID: T_CL_RMS
     QUANTITY: THERMOCOUPLE
     Coordinates (X,Y,Z):    1.000000E-03    1.000000E-03    1.272925E+00
     TEMPORAL STATISTIC: RMS
  Property ID: TC
  93 ID: T_CL_RMS
     QUANTITY: THERMOCOUPLE
     Coordinates (X,Y,Z):    1.000000E-03    1.000000E-03    1.312547E+00
     TEMPORAL STATISTIC: RMS
  Property ID: TC
  94 ID: T_CL_RMS
     QUANTITY: THERMOCOUPLE
     Coordinates (X,Y,Z):    1.000000E-03    1.000000E-03    1.352170E+00
     TEMPORAL STATISTIC: RMS
  Property ID: TC
  95 ID: T_CL_RMS
     QUANTITY: THERMOCOUPLE
     Coordinates (X,Y,Z):    1.000000E-03    1.000000E-03    1.391792E+00
     TEMPORAL STATISTIC: RMS
  Property ID: TC
  96 ID: T_CL_RMS
     QUANTITY: THERMOCOUPLE
     Coordinates (X,Y,Z):    1.000000E-03    1.000000E-03    1.431415E+00
     TEMPORAL STATISTIC: RMS
  Property ID: TC
  97 ID: T_CL_RMS
     QUANTITY: THERMOCOUPLE
     Coordinates (X,Y,Z):    1.000000E-03    1.000000E-03    1.471038E+00
     TEMPORAL STATISTIC: RMS
  Property ID: TC
  98 ID: T_CL_RMS
     QUANTITY: THERMOCOUPLE
     Coordinates (X,Y,Z):    1.000000E-03    1.000000E-03    1.510660E+00
     TEMPORAL STATISTIC: RMS
  Property ID: TC
  99 ID: T_CL_RMS
     QUANTITY: THERMOCOUPLE
     Coordinates (X,Y,Z):    1.000000E-03    1.000000E-03    1.550283E+00
     TEMPORAL STATISTIC: RMS
  Property ID: TC
 100 ID: T_CL_RMS
     QUANTITY: THERMOCOUPLE
     Coordinates (X,Y,Z):    1.000000E-03    1.000000E-03    1.589906E+00
     TEMPORAL STATISTIC: RMS
  Property ID: TC
 101 ID: T_CL_RMS
     QUANTITY: THERMOCOUPLE
     Coordinates (X,Y,Z):    1.000000E-03    1.000000E-03    1.629528E+00
     TEMPORAL STATISTIC: RMS
  Property ID: TC
 102 ID: T_CL_RMS
     QUANTITY: THERMOCOUPLE
     Coordinates (X,Y,Z):    1.000000E-03    1.000000E-03    1.669151E+00
     TEMPORAL STATISTIC: RMS
  Property ID: TC
 103 ID: T_CL_RMS
     QUANTITY: THERMOCOUPLE
     Coordinates (X,Y,Z):    1.000000E-03    1.000000E-03    1.708774E+00
     TEMPORAL STATISTIC: RMS
  Property ID: TC
 104 ID: T_CL_RMS
     QUANTITY: THERMOCOUPLE
     Coordinates (X,Y,Z):    1.000000E-03    1.000000E-03    1.748396E+00
     TEMPORAL STATISTIC: RMS
  Property ID: TC
 105 ID: T_CL_RMS
     QUANTITY: THERMOCOUPLE
     Coordinates (X,Y,Z):    1.000000E-03    1.000000E-03    1.788019E+00
     TEMPORAL STATISTIC: RMS
  Property ID: TC
 106 ID: T_CL_RMS
     QUANTITY: THERMOCOUPLE
     Coordinates (X,Y,Z):    1.000000E-03    1.000000E-03    1.827642E+00
     TEMPORAL STATISTIC: RMS
  Property ID: TC
 107 ID: T_CL_RMS
     QUANTITY: THERMOCOUPLE
     Coordinates (X,Y,Z):    1.000000E-03    1.000000E-03    1.867264E+00
     TEMPORAL STATISTIC: RMS
  Property ID: TC
 108 ID: T_CL_RMS
     QUANTITY: THERMOCOUPLE
     Coordinates (X,Y,Z):    1.000000E-03    1.000000E-03    1.906887E+00
     TEMPORAL STATISTIC: RMS
  Property ID: TC
 109 ID: T_CL_RMS
     QUANTITY: THERMOCOUPLE
     Coordinates (X,Y,Z):    1.000000E-03    1.000000E-03    1.946509E+00
     TEMPORAL STATISTIC: RMS
  Property ID: TC
 110 ID: T_CL_RMS
     QUANTITY: THERMOCOUPLE
     Coordinates (X,Y,Z):    1.000000E-03    1.000000E-03    1.986132E+00
     TEMPORAL STATISTIC: RMS
  Property ID: TC
 111 ID: T_CL_RMS
     QUANTITY: THERMOCOUPLE
     Coordinates (X,Y,Z):    1.000000E-03    1.000000E-03    2.025755E+00
     TEMPORAL STATISTIC: RMS
  Property ID: TC
 112 ID: T_CL_RMS
     QUANTITY: THERMOCOUPLE
     Coordinates (X,Y,Z):    1.000000E-03    1.000000E-03    2.065377E+00
     TEMPORAL STATISTIC: RMS
  Property ID: TC
 113 ID: T_CL_RMS
     QUANTITY: THERMOCOUPLE
     Coordinates (X,Y,Z):    1.000000E-03    1.000000E-03    2.105000E+00
     TEMPORAL STATISTIC: RMS
  Property ID: TC
 114 ID: T_20
     QUANTITY: THERMOCOUPLE
     Coordinates (X,Y,Z):   -9.500000E-02    1.000000E-03    2.000000E-01
     TEMPORAL STATISTIC: RUNNING AVERAGE
  Property ID: TC
 115 ID: T_20
     QUANTITY: THERMOCOUPLE
     Coordinates (X,Y,Z):   -5.285714E-02    1.000000E-03    2.000000E-01
     TEMPORAL STATISTIC: RUNNING AVERAGE
  Property ID: TC
 116 ID: T_20
     QUANTITY: THERMOCOUPLE
     Coordinates (X,Y,Z):   -1.071429E-02    1.000000E-03    2.000000E-01
     TEMPORAL STATISTIC: RUNNING AVERAGE
  Property ID: TC
 117 ID: T_20
     QUANTITY: THERMOCOUPLE
     Coordinates (X,Y,Z):    3.142857E-02    1.000000E-03    2.000000E-01
     TEMPORAL STATISTIC: RUNNING AVERAGE
  Property ID: TC
 118 ID: T_20
     QUANTITY: THERMOCOUPLE
     Coordinates (X,Y,Z):    7.357143E-02    1.000000E-03    2.000000E-01
     TEMPORAL STATISTIC: RUNNING AVERAGE
  Property ID: TC
 119 ID: T_20
     QUANTITY: THERMOCOUPLE
     Coordinates (X,Y,Z):    1.157143E-01    1.000000E-03    2.000000E-01
     TEMPORAL STATISTIC: RUNNING AVERAGE
  Property ID: TC
 120 ID: T_20
     QUANTITY: THERMOCOUPLE
     Coordinates (X,Y,Z):    1.578571E-01    1.000000E-03    2.000000E-01
     TEMPORAL STATISTIC: RUNNING AVERAGE
  Property ID: TC
 121 ID: T_20
     QUANTITY: THERMOCOUPLE
     Coordinates (X,Y,Z):    2.000000E-01    1.000000E-03    2.000000E-01
     TEMPORAL STATISTIC: RUNNING AVERAGE
  Property ID: TC
 122 ID: T_20
     QUANTITY: THERMOCOUPLE
     Coordinates (X,Y,Z):    2.421429E-01    1.000000E-03    2.000000E-01
     TEMPORAL STATISTIC: RUNNING AVERAGE
  Property ID: TC
 123 ID: T_20
     QUANTITY: THERMOCOUPLE
     Coordinates (X,Y,Z):    2.842857E-01    1.000000E-03    2.000000E-01
     TEMPORAL STATISTIC: RUNNING AVERAGE
  Property ID: TC
 124 ID: T_20
     QUANTITY: THERMOCOUPLE
     Coordinates (X,Y,Z):    3.264286E-01    1.000000E-03    2.000000E-01
     TEMPORAL STATISTIC: RUNNING AVERAGE
  Property ID: TC
 125 ID: T_20
     QUANTITY: THERMOCOUPLE
     Coordinates (X,Y,Z):    3.685714E-01    1.000000E-03    2.000000E-01
     TEMPORAL STATISTIC: RUNNING AVERAGE
  Property ID: TC
 126 ID: T_20
     QUANTITY: THERMOCOUPLE
     Coordinates (X,Y,Z):    4.107143E-01    1.000000E-03    2.000000E-01
     TEMPORAL STATISTIC: RUNNING AVERAGE
  Property ID: TC
 127 ID: T_20
     QUANTITY: THERMOCOUPLE
     Coordinates (X,Y,Z):    4.528571E-01    1.000000E-03    2.000000E-01
     TEMPORAL STATISTIC: RUNNING AVERAGE
  Property ID: TC
 128 ID: T_20
     QUANTITY: THERMOCOUPLE
     Coordinates (X,Y,Z):    4.950000E-01    1.000000E-03    2.000000E-01
     TEMPORAL STATISTIC: RUNNING AVERAGE
  Property ID: TC
 129 ID: T_20_RMS
     QUANTITY: THERMOCOUPLE
     Coordinates (X,Y,Z):   -9.500000E-02    1.000000E-03    2.000000E-01
     TEMPORAL STATISTIC: RMS
  Property ID: TC
 130 ID: T_20_RMS
     QUANTITY: THERMOCOUPLE
     Coordinates (X,Y,Z):   -5.285714E-02    1.000000E-03    2.000000E-01
     TEMPORAL STATISTIC: RMS
  Property ID: TC
 131 ID: T_20_RMS
     QUANTITY: THERMOCOUPLE
     Coordinates (X,Y,Z):   -1.071429E-02    1.000000E-03    2.000000E-01
     TEMPORAL STATISTIC: RMS
  Property ID: TC
 132 ID: T_20_RMS
     QUANTITY: THERMOCOUPLE
     Coordinates (X,Y,Z):    3.142857E-02    1.000000E-03    2.000000E-01
     TEMPORAL STATISTIC: RMS
  Property ID: TC
 133 ID: T_20_RMS
     QUANTITY: THERMOCOUPLE
     Coordinates (X,Y,Z):    7.357143E-02    1.000000E-03    2.000000E-01
     TEMPORAL STATISTIC: RMS
  Property ID: TC
 134 ID: T_20_RMS
     QUANTITY: THERMOCOUPLE
     Coordinates (X,Y,Z):    1.157143E-01    1.000000E-03    2.000000E-01
     TEMPORAL STATISTIC: RMS
  Property ID: TC
 135 ID: T_20_RMS
     QUANTITY: THERMOCOUPLE
     Coordinates (X,Y,Z):    1.578571E-01    1.000000E-03    2.000000E-01
     TEMPORAL STATISTIC: RMS
  Property ID: TC
 136 ID: T_20_RMS
     QUANTITY: THERMOCOUPLE
     Coordinates (X,Y,Z):    2.000000E-01    1.000000E-03    2.000000E-01
     TEMPORAL STATISTIC: RMS
  Property ID: TC
 137 ID: T_20_RMS
     QUANTITY: THERMOCOUPLE
     Coordinates (X,Y,Z):    2.421429E-01    1.000000E-03    2.000000E-01
     TEMPORAL STATISTIC: RMS
  Property ID: TC
 138 ID: T_20_RMS
     QUANTITY: THERMOCOUPLE
     Coordinates (X,Y,Z):    2.842857E-01    1.000000E-03    2.000000E-01
     TEMPORAL STATISTIC: RMS
  Property ID: TC
 139 ID: T_20_RMS
     QUANTITY: THERMOCOUPLE
     Coordinates (X,Y,Z):    3.264286E-01    1.000000E-03    2.000000E-01
     TEMPORAL STATISTIC: RMS
  Property ID: TC
 140 ID: T_20_RMS
     QUANTITY: THERMOCOUPLE
     Coordinates (X,Y,Z):    3.685714E-01    1.000000E-03    2.000000E-01
     TEMPORAL STATISTIC: RMS
  Property ID: TC
 141 ID: T_20_RMS
     QUANTITY: THERMOCOUPLE
     Coordinates (X,Y,Z):    4.107143E-01    1.000000E-03    2.000000E-01
     TEMPORAL STATISTIC: RMS
  Property ID: TC
 142 ID: T_20_RMS
     QUANTITY: THERMOCOUPLE
     Coordinates (X,Y,Z):    4.528571E-01    1.000000E-03    2.000000E-01
     TEMPORAL STATISTIC: RMS
  Property ID: TC
 143 ID: T_20_RMS
     QUANTITY: THERMOCOUPLE
     Coordinates (X,Y,Z):    4.950000E-01    1.000000E-03    2.000000E-01
     TEMPORAL STATISTIC: RMS
  Property ID: TC
 144 ID: T_60
     QUANTITY: THERMOCOUPLE
     Coordinates (X,Y,Z):   -9.500000E-02    1.000000E-03    6.000000E-01
     TEMPORAL STATISTIC: RUNNING AVERAGE
  Property ID: TC
 145 ID: T_60
     QUANTITY: THERMOCOUPLE
     Coordinates (X,Y,Z):   -5.285714E-02    1.000000E-03    6.000000E-01
     TEMPORAL STATISTIC: RUNNING AVERAGE
  Property ID: TC
 146 ID: T_60
     QUANTITY: THERMOCOUPLE
     Coordinates (X,Y,Z):   -1.071429E-02    1.000000E-03    6.000000E-01
     TEMPORAL STATISTIC: RUNNING AVERAGE
  Property ID: TC
 147 ID: T_60
     QUANTITY: THERMOCOUPLE
     Coordinates (X,Y,Z):    3.142857E-02    1.000000E-03    6.000000E-01
     TEMPORAL STATISTIC: RUNNING AVERAGE
  Property ID: TC
 148 ID: T_60
     QUANTITY: THERMOCOUPLE
     Coordinates (X,Y,Z):    7.357143E-02    1.000000E-03    6.000000E-01
     TEMPORAL STATISTIC: RUNNING AVERAGE
  Property ID: TC
 149 ID: T_60
     QUANTITY: THERMOCOUPLE
     Coordinates (X,Y,Z):    1.157143E-01    1.000000E-03    6.000000E-01
     TEMPORAL STATISTIC: RUNNING AVERAGE
  Property ID: TC
 150 ID: T_60
     QUANTITY: THERMOCOUPLE
     Coordinates (X,Y,Z):    1.578571E-01    1.000000E-03    6.000000E-01
     TEMPORAL STATISTIC: RUNNING AVERAGE
  Property ID: TC
 151 ID: T_60
     QUANTITY: THERMOCOUPLE
     Coordinates (X,Y,Z):    2.000000E-01    1.000000E-03    6.000000E-01
     TEMPORAL STATISTIC: RUNNING AVERAGE
  Property ID: TC
 152 ID: T_60
     QUANTITY: THERMOCOUPLE
     Coordinates (X,Y,Z):    2.421429E-01    1.000000E-03    6.000000E-01
     TEMPORAL STATISTIC: RUNNING AVERAGE
  Property ID: TC
 153 ID: T_60
     QUANTITY: THERMOCOUPLE
     Coordinates (X,Y,Z):    2.842857E-01    1.000000E-03    6.000000E-01
     TEMPORAL STATISTIC: RUNNING AVERAGE
  Property ID: TC
 154 ID: T_60
     QUANTITY: THERMOCOUPLE
     Coordinates (X,Y,Z):    3.264286E-01    1.000000E-03    6.000000E-01
     TEMPORAL STATISTIC: RUNNING AVERAGE
  Property ID: TC
 155 ID: T_60
     QUANTITY: THERMOCOUPLE
     Coordinates (X,Y,Z):    3.685714E-01    1.000000E-03    6.000000E-01
     TEMPORAL STATISTIC: RUNNING AVERAGE
  Property ID: TC
 156 ID: T_60
     QUANTITY: THERMOCOUPLE
     Coordinates (X,Y,Z):    4.107143E-01    1.000000E-03    6.000000E-01
     TEMPORAL STATISTIC: RUNNING AVERAGE
  Property ID: TC
 157 ID: T_60
     QUANTITY: THERMOCOUPLE
     Coordinates (X,Y,Z):    4.528571E-01    1.000000E-03    6.000000E-01
     TEMPORAL STATISTIC: RUNNING AVERAGE
  Property ID: TC
 158 ID: T_60
     QUANTITY: THERMOCOUPLE
     Coordinates (X,Y,Z):    4.950000E-01    1.000000E-03    6.000000E-01
     TEMPORAL STATISTIC: RUNNING AVERAGE
  Property ID: TC
 159 ID: T_60_RMS
     QUANTITY: THERMOCOUPLE
     Coordinates (X,Y,Z):   -9.500000E-02    1.000000E-03    6.000000E-01
     TEMPORAL STATISTIC: RMS
  Property ID: TC
 160 ID: T_60_RMS
     QUANTITY: THERMOCOUPLE
     Coordinates (X,Y,Z):   -5.285714E-02    1.000000E-03    6.000000E-01
     TEMPORAL STATISTIC: RMS
  Property ID: TC
 161 ID: T_60_RMS
     QUANTITY: THERMOCOUPLE
     Coordinates (X,Y,Z):   -1.071429E-02    1.000000E-03    6.000000E-01
     TEMPORAL STATISTIC: RMS
  Property ID: TC
 162 ID: T_60_RMS
     QUANTITY: THERMOCOUPLE
     Coordinates (X,Y,Z):    3.142857E-02    1.000000E-03    6.000000E-01
     TEMPORAL STATISTIC: RMS
  Property ID: TC
 163 ID: T_60_RMS
     QUANTITY: THERMOCOUPLE
     Coordinates (X,Y,Z):    7.357143E-02    1.000000E-03    6.000000E-01
     TEMPORAL STATISTIC: RMS
  Property ID: TC
 164 ID: T_60_RMS
     QUANTITY: THERMOCOUPLE
     Coordinates (X,Y,Z):    1.157143E-01    1.000000E-03    6.000000E-01
     TEMPORAL STATISTIC: RMS
  Property ID: TC
 165 ID: T_60_RMS
     QUANTITY: THERMOCOUPLE
     Coordinates (X,Y,Z):    1.578571E-01    1.000000E-03    6.000000E-01
     TEMPORAL STATISTIC: RMS
  Property ID: TC
 166 ID: T_60_RMS
     QUANTITY: THERMOCOUPLE
     Coordinates (X,Y,Z):    2.000000E-01    1.000000E-03    6.000000E-01
     TEMPORAL STATISTIC: RMS
  Property ID: TC
 167 ID: T_60_RMS
     QUANTITY: THERMOCOUPLE
     Coordinates (X,Y,Z):    2.421429E-01    1.000000E-03    6.000000E-01
     TEMPORAL STATISTIC: RMS
  Property ID: TC
 168 ID: T_60_RMS
     QUANTITY: THERMOCOUPLE
     Coordinates (X,Y,Z):    2.842857E-01    1.000000E-03    6.000000E-01
     TEMPORAL STATISTIC: RMS
  Property ID: TC
 169 ID: T_60_RMS
     QUANTITY: THERMOCOUPLE
     Coordinates (X,Y,Z):    3.264286E-01    1.000000E-03    6.000000E-01
     TEMPORAL STATISTIC: RMS
  Property ID: TC
 170 ID: T_60_RMS
     QUANTITY: THERMOCOUPLE
     Coordinates (X,Y,Z):    3.685714E-01    1.000000E-03    6.000000E-01
     TEMPORAL STATISTIC: RMS
  Property ID: TC
 171 ID: T_60_RMS
     QUANTITY: THERMOCOUPLE
     Coordinates (X,Y,Z):    4.107143E-01    1.000000E-03    6.000000E-01
     TEMPORAL STATISTIC: RMS
  Property ID: TC
 172 ID: T_60_RMS
     QUANTITY: THERMOCOUPLE
     Coordinates (X,Y,Z):    4.528571E-01    1.000000E-03    6.000000E-01
     TEMPORAL STATISTIC: RMS
  Property ID: TC
 173 ID: T_60_RMS
     QUANTITY: THERMOCOUPLE
     Coordinates (X,Y,Z):    4.950000E-01    1.000000E-03    6.000000E-01
     TEMPORAL STATISTIC: RMS
  Property ID: TC
 174 ID: T_100
     QUANTITY: THERMOCOUPLE
     Coordinates (X,Y,Z):   -9.500000E-02    1.000000E-03    1.000000E+00
     TEMPORAL STATISTIC: RUNNING AVERAGE
  Property ID: TC
 175 ID: T_100
     QUANTITY: THERMOCOUPLE
     Coordinates (X,Y,Z):   -5.285714E-02    1.000000E-03    1.000000E+00
     TEMPORAL STATISTIC: RUNNING AVERAGE
  Property ID: TC
 176 ID: T_100
     QUANTITY: THERMOCOUPLE
     Coordinates (X,Y,Z):   -1.071429E-02    1.000000E-03    1.000000E+00
     TEMPORAL STATISTIC: RUNNING AVERAGE
  Property ID: TC
 177 ID: T_100
     QUANTITY: THERMOCOUPLE
     Coordinates (X,Y,Z):    3.142857E-02    1.000000E-03    1.000000E+00
     TEMPORAL STATISTIC: RUNNING AVERAGE
  Property ID: TC
 178 ID: T_100
     QUANTITY: THERMOCOUPLE
     Coordinates (X,Y,Z):    7.357143E-02    1.000000E-03    1.000000E+00
     TEMPORAL STATISTIC: RUNNING AVERAGE
  Property ID: TC
 179 ID: T_100
     QUANTITY: THERMOCOUPLE
     Coordinates (X,Y,Z):    1.157143E-01    1.000000E-03    1.000000E+00
     TEMPORAL STATISTIC: RUNNING AVERAGE
  Property ID: TC
 180 ID: T_100
     QUANTITY: THERMOCOUPLE
     Coordinates (X,Y,Z):    1.578571E-01    1.000000E-03    1.000000E+00
     TEMPORAL STATISTIC: RUNNING AVERAGE
  Property ID: TC
 181 ID: T_100
     QUANTITY: THERMOCOUPLE
     Coordinates (X,Y,Z):    2.000000E-01    1.000000E-03    1.000000E+00
     TEMPORAL STATISTIC: RUNNING AVERAGE
  Property ID: TC
 182 ID: T_100
     QUANTITY: THERMOCOUPLE
     Coordinates (X,Y,Z):    2.421429E-01    1.000000E-03    1.000000E+00
     TEMPORAL STATISTIC: RUNNING AVERAGE
  Property ID: TC
 183 ID: T_100
     QUANTITY: THERMOCOUPLE
     Coordinates (X,Y,Z):    2.842857E-01    1.000000E-03    1.000000E+00
     TEMPORAL STATISTIC: RUNNING AVERAGE
  Property ID: TC
 184 ID: T_100
     QUANTITY: THERMOCOUPLE
     Coordinates (X,Y,Z):    3.264286E-01    1.000000E-03    1.000000E+00
     TEMPORAL STATISTIC: RUNNING AVERAGE
  Property ID: TC
 185 ID: T_100
     QUANTITY: THERMOCOUPLE
     Coordinates (X,Y,Z):    3.685714E-01    1.000000E-03    1.000000E+00
     TEMPORAL STATISTIC: RUNNING AVERAGE
  Property ID: TC
 186 ID: T_100
     QUANTITY: THERMOCOUPLE
     Coordinates (X,Y,Z):    4.107143E-01    1.000000E-03    1.000000E+00
     TEMPORAL STATISTIC: RUNNING AVERAGE
  Property ID: TC
 187 ID: T_100
     QUANTITY: THERMOCOUPLE
     Coordinates (X,Y,Z):    4.528571E-01    1.000000E-03    1.000000E+00
     TEMPORAL STATISTIC: RUNNING AVERAGE
  Property ID: TC
 188 ID: T_100
     QUANTITY: THERMOCOUPLE
     Coordinates (X,Y,Z):    4.950000E-01    1.000000E-03    1.000000E+00
     TEMPORAL STATISTIC: RUNNING AVERAGE
  Property ID: TC
 189 ID: T_100_RMS
     QUANTITY: THERMOCOUPLE
     Coordinates (X,Y,Z):   -9.500000E-02    1.000000E-03    1.000000E+00
     TEMPORAL STATISTIC: RMS
  Property ID: TC
 190 ID: T_100_RMS
     QUANTITY: THERMOCOUPLE
     Coordinates (X,Y,Z):   -5.285714E-02    1.000000E-03    1.000000E+00
     TEMPORAL STATISTIC: RMS
  Property ID: TC
 191 ID: T_100_RMS
     QUANTITY: THERMOCOUPLE
     Coordinates (X,Y,Z):   -1.071429E-02    1.000000E-03    1.000000E+00
     TEMPORAL STATISTIC: RMS
  Property ID: TC
 192 ID: T_100_RMS
     QUANTITY: THERMOCOUPLE
     Coordinates (X,Y,Z):    3.142857E-02    1.000000E-03    1.000000E+00
     TEMPORAL STATISTIC: RMS
  Property ID: TC
 193 ID: T_100_RMS
     QUANTITY: THERMOCOUPLE
     Coordinates (X,Y,Z):    7.357143E-02    1.000000E-03    1.000000E+00
     TEMPORAL STATISTIC: RMS
  Property ID: TC
 194 ID: T_100_RMS
     QUANTITY: THERMOCOUPLE
     Coordinates (X,Y,Z):    1.157143E-01    1.000000E-03    1.000000E+00
     TEMPORAL STATISTIC: RMS
  Property ID: TC
 195 ID: T_100_RMS
     QUANTITY: THERMOCOUPLE
     Coordinates (X,Y,Z):    1.578571E-01    1.000000E-03    1.000000E+00
     TEMPORAL STATISTIC: RMS
  Property ID: TC
 196 ID: T_100_RMS
     QUANTITY: THERMOCOUPLE
     Coordinates (X,Y,Z):    2.000000E-01    1.000000E-03    1.000000E+00
     TEMPORAL STATISTIC: RMS
  Property ID: TC
 197 ID: T_100_RMS
     QUANTITY: THERMOCOUPLE
     Coordinates (X,Y,Z):    2.421429E-01    1.000000E-03    1.000000E+00
     TEMPORAL STATISTIC: RMS
  Property ID: TC
 198 ID: T_100_RMS
     QUANTITY: THERMOCOUPLE
     Coordinates (X,Y,Z):    2.842857E-01    1.000000E-03    1.000000E+00
     TEMPORAL STATISTIC: RMS
  Property ID: TC
 199 ID: T_100_RMS
     QUANTITY: THERMOCOUPLE
     Coordinates (X,Y,Z):    3.264286E-01    1.000000E-03    1.000000E+00
     TEMPORAL STATISTIC: RMS
  Property ID: TC
 200 ID: T_100_RMS
     QUANTITY: THERMOCOUPLE
     Coordinates (X,Y,Z):    3.685714E-01    1.000000E-03    1.000000E+00
     TEMPORAL STATISTIC: RMS
  Property ID: TC
 201 ID: T_100_RMS
     QUANTITY: THERMOCOUPLE
     Coordinates (X,Y,Z):    4.107143E-01    1.000000E-03    1.000000E+00
     TEMPORAL STATISTIC: RMS
  Property ID: TC
 202 ID: T_100_RMS
     QUANTITY: THERMOCOUPLE
     Coordinates (X,Y,Z):    4.528571E-01    1.000000E-03    1.000000E+00
     TEMPORAL STATISTIC: RMS
  Property ID: TC
 203 ID: T_100_RMS
     QUANTITY: THERMOCOUPLE
     Coordinates (X,Y,Z):    4.950000E-01    1.000000E-03    1.000000E+00
     TEMPORAL STATISTIC: RMS
  Property ID: TC
 204 ID: T_140
     QUANTITY: THERMOCOUPLE
     Coordinates (X,Y,Z):   -9.500000E-02    1.000000E-03    1.400000E+00
     TEMPORAL STATISTIC: RUNNING AVERAGE
  Property ID: TC
 205 ID: T_140
     QUANTITY: THERMOCOUPLE
     Coordinates (X,Y,Z):   -5.285714E-02    1.000000E-03    1.400000E+00
     TEMPORAL STATISTIC: RUNNING AVERAGE
  Property ID: TC
 206 ID: T_140
     QUANTITY: THERMOCOUPLE
     Coordinates (X,Y,Z):   -1.071429E-02    1.000000E-03    1.400000E+00
     TEMPORAL STATISTIC: RUNNING AVERAGE
  Property ID: TC
 207 ID: T_140
     QUANTITY: THERMOCOUPLE
     Coordinates (X,Y,Z):    3.142857E-02    1.000000E-03    1.400000E+00
     TEMPORAL STATISTIC: RUNNING AVERAGE
  Property ID: TC
 208 ID: T_140
     QUANTITY: THERMOCOUPLE
     Coordinates (X,Y,Z):    7.357143E-02    1.000000E-03    1.400000E+00
     TEMPORAL STATISTIC: RUNNING AVERAGE
  Property ID: TC
 209 ID: T_140
     QUANTITY: THERMOCOUPLE
     Coordinates (X,Y,Z):    1.157143E-01    1.000000E-03    1.400000E+00
     TEMPORAL STATISTIC: RUNNING AVERAGE
  Property ID: TC
 210 ID: T_140
     QUANTITY: THERMOCOUPLE
     Coordinates (X,Y,Z):    1.578571E-01    1.000000E-03    1.400000E+00
     TEMPORAL STATISTIC: RUNNING AVERAGE
  Property ID: TC
 211 ID: T_140
     QUANTITY: THERMOCOUPLE
     Coordinates (X,Y,Z):    2.000000E-01    1.000000E-03    1.400000E+00
     TEMPORAL STATISTIC: RUNNING AVERAGE
  Property ID: TC
 212 ID: T_140
     QUANTITY: THERMOCOUPLE
     Coordinates (X,Y,Z):    2.421429E-01    1.000000E-03    1.400000E+00
     TEMPORAL STATISTIC: RUNNING AVERAGE
  Property ID: TC
 213 ID: T_140
     QUANTITY: THERMOCOUPLE
     Coordinates (X,Y,Z):    2.842857E-01    1.000000E-03    1.400000E+00
     TEMPORAL STATISTIC: RUNNING AVERAGE
  Property ID: TC
 214 ID: T_140
     QUANTITY: THERMOCOUPLE
     Coordinates (X,Y,Z):    3.264286E-01    1.000000E-03    1.400000E+00
     TEMPORAL STATISTIC: RUNNING AVERAGE
  Property ID: TC
 215 ID: T_140
     QUANTITY: THERMOCOUPLE
     Coordinates (X,Y,Z):    3.685714E-01    1.000000E-03    1.400000E+00
     TEMPORAL STATISTIC: RUNNING AVERAGE
  Property ID: TC
 216 ID: T_140
     QUANTITY: THERMOCOUPLE
     Coordinates (X,Y,Z):    4.107143E-01    1.000000E-03    1.400000E+00
     TEMPORAL STATISTIC: RUNNING AVERAGE
  Property ID: TC
 217 ID: T_140
     QUANTITY: THERMOCOUPLE
     Coordinates (X,Y,Z):    4.528571E-01    1.000000E-03    1.400000E+00
     TEMPORAL STATISTIC: RUNNING AVERAGE
  Property ID: TC
 218 ID: T_140
     QUANTITY: THERMOCOUPLE
     Coordinates (X,Y,Z):    4.950000E-01    1.000000E-03    1.400000E+00
     TEMPORAL STATISTIC: RUNNING AVERAGE
  Property ID: TC
 219 ID: T_140_RMS
     QUANTITY: THERMOCOUPLE
     Coordinates (X,Y,Z):   -9.500000E-02    1.000000E-03    1.400000E+00
     TEMPORAL STATISTIC: RMS
  Property ID: TC
 220 ID: T_140_RMS
     QUANTITY: THERMOCOUPLE
     Coordinates (X,Y,Z):   -5.285714E-02    1.000000E-03    1.400000E+00
     TEMPORAL STATISTIC: RMS
  Property ID: TC
 221 ID: T_140_RMS
     QUANTITY: THERMOCOUPLE
     Coordinates (X,Y,Z):   -1.071429E-02    1.000000E-03    1.400000E+00
     TEMPORAL STATISTIC: RMS
  Property ID: TC
 222 ID: T_140_RMS
     QUANTITY: THERMOCOUPLE
     Coordinates (X,Y,Z):    3.142857E-02    1.000000E-03    1.400000E+00
     TEMPORAL STATISTIC: RMS
  Property ID: TC
 223 ID: T_140_RMS
     QUANTITY: THERMOCOUPLE
     Coordinates (X,Y,Z):    7.357143E-02    1.000000E-03    1.400000E+00
     TEMPORAL STATISTIC: RMS
  Property ID: TC
 224 ID: T_140_RMS
     QUANTITY: THERMOCOUPLE
     Coordinates (X,Y,Z):    1.157143E-01    1.000000E-03    1.400000E+00
     TEMPORAL STATISTIC: RMS
  Property ID: TC
 225 ID: T_140_RMS
     QUANTITY: THERMOCOUPLE
     Coordinates (X,Y,Z):    1.578571E-01    1.000000E-03    1.400000E+00
     TEMPORAL STATISTIC: RMS
  Property ID: TC
 226 ID: T_140_RMS
     QUANTITY: THERMOCOUPLE
     Coordinates (X,Y,Z):    2.000000E-01    1.000000E-03    1.400000E+00
     TEMPORAL STATISTIC: RMS
  Property ID: TC
 227 ID: T_140_RMS
     QUANTITY: THERMOCOUPLE
     Coordinates (X,Y,Z):    2.421429E-01    1.000000E-03    1.400000E+00
     TEMPORAL STATISTIC: RMS
  Property ID: TC
 228 ID: T_140_RMS
     QUANTITY: THERMOCOUPLE
     Coordinates (X,Y,Z):    2.842857E-01    1.000000E-03    1.400000E+00
     TEMPORAL STATISTIC: RMS
  Property ID: TC
 229 ID: T_140_RMS
     QUANTITY: THERMOCOUPLE
     Coordinates (X,Y,Z):    3.264286E-01    1.000000E-03    1.400000E+00
     TEMPORAL STATISTIC: RMS
  Property ID: TC
 230 ID: T_140_RMS
     QUANTITY: THERMOCOUPLE
     Coordinates (X,Y,Z):    3.685714E-01    1.000000E-03    1.400000E+00
     TEMPORAL STATISTIC: RMS
  Property ID: TC
 231 ID: T_140_RMS
     QUANTITY: THERMOCOUPLE
     Coordinates (X,Y,Z):    4.107143E-01    1.000000E-03    1.400000E+00
     TEMPORAL STATISTIC: RMS
  Property ID: TC
 232 ID: T_140_RMS
     QUANTITY: THERMOCOUPLE
     Coordinates (X,Y,Z):    4.528571E-01    1.000000E-03    1.400000E+00
     TEMPORAL STATISTIC: RMS
  Property ID: TC
 233 ID: T_140_RMS
     QUANTITY: THERMOCOUPLE
     Coordinates (X,Y,Z):    4.950000E-01    1.000000E-03    1.400000E+00
     TEMPORAL STATISTIC: RMS
  Property ID: TC
 234 ID: T_180
     QUANTITY: THERMOCOUPLE
     Coordinates (X,Y,Z):   -9.500000E-02    1.000000E-03    1.800000E+00
     TEMPORAL STATISTIC: RUNNING AVERAGE
  Property ID: TC
 235 ID: T_180
     QUANTITY: THERMOCOUPLE
     Coordinates (X,Y,Z):   -5.285714E-02    1.000000E-03    1.800000E+00
     TEMPORAL STATISTIC: RUNNING AVERAGE
  Property ID: TC
 236 ID: T_180
     QUANTITY: THERMOCOUPLE
     Coordinates (X,Y,Z):   -1.071429E-02    1.000000E-03    1.800000E+00
     TEMPORAL STATISTIC: RUNNING AVERAGE
  Property ID: TC
 237 ID: T_180
     QUANTITY: THERMOCOUPLE
     Coordinates (X,Y,Z):    3.142857E-02    1.000000E-03    1.800000E+00
     TEMPORAL STATISTIC: RUNNING AVERAGE
  Property ID: TC
 238 ID: T_180
     QUANTITY: THERMOCOUPLE
     Coordinates (X,Y,Z):    7.357143E-02    1.000000E-03    1.800000E+00
     TEMPORAL STATISTIC: RUNNING AVERAGE
  Property ID: TC
 239 ID: T_180
     QUANTITY: THERMOCOUPLE
     Coordinates (X,Y,Z):    1.157143E-01    1.000000E-03    1.800000E+00
     TEMPORAL STATISTIC: RUNNING AVERAGE
  Property ID: TC
 240 ID: T_180
     QUANTITY: THERMOCOUPLE
     Coordinates (X,Y,Z):    1.578571E-01    1.000000E-03    1.800000E+00
     TEMPORAL STATISTIC: RUNNING AVERAGE
  Property ID: TC
 241 ID: T_180
     QUANTITY: THERMOCOUPLE
     Coordinates (X,Y,Z):    2.000000E-01    1.000000E-03    1.800000E+00
     TEMPORAL STATISTIC: RUNNING AVERAGE
  Property ID: TC
 242 ID: T_180
     QUANTITY: THERMOCOUPLE
     Coordinates (X,Y,Z):    2.421429E-01    1.000000E-03    1.800000E+00
     TEMPORAL STATISTIC: RUNNING AVERAGE
  Property ID: TC
 243 ID: T_180
     QUANTITY: THERMOCOUPLE
     Coordinates (X,Y,Z):    2.842857E-01    1.000000E-03    1.800000E+00
     TEMPORAL STATISTIC: RUNNING AVERAGE
  Property ID: TC
 244 ID: T_180
     QUANTITY: THERMOCOUPLE
     Coordinates (X,Y,Z):    3.264286E-01    1.000000E-03    1.800000E+00
     TEMPORAL STATISTIC: RUNNING AVERAGE
  Property ID: TC
 245 ID: T_180
     QUANTITY: THERMOCOUPLE
     Coordinates (X,Y,Z):    3.685714E-01    1.000000E-03    1.800000E+00
     TEMPORAL STATISTIC: RUNNING AVERAGE
  Property ID: TC
 246 ID: T_180
     QUANTITY: THERMOCOUPLE
     Coordinates (X,Y,Z):    4.107143E-01    1.000000E-03    1.800000E+00
     TEMPORAL STATISTIC: RUNNING AVERAGE
  Property ID: TC
 247 ID: T_180
     QUANTITY: THERMOCOUPLE
     Coordinates (X,Y,Z):    4.528571E-01    1.000000E-03    1.800000E+00
     TEMPORAL STATISTIC: RUNNING AVERAGE
  Property ID: TC
 248 ID: T_180
     QUANTITY: THERMOCOUPLE
     Coordinates (X,Y,Z):    4.950000E-01    1.000000E-03    1.800000E+00
     TEMPORAL STATISTIC: RUNNING AVERAGE
  Property ID: TC
 249 ID: T_180_RMS
     QUANTITY: THERMOCOUPLE
     Coordinates (X,Y,Z):   -9.500000E-02    1.000000E-03    1.800000E+00
     TEMPORAL STATISTIC: RMS
  Property ID: TC
 250 ID: T_180_RMS
     QUANTITY: THERMOCOUPLE
     Coordinates (X,Y,Z):   -5.285714E-02    1.000000E-03    1.800000E+00
     TEMPORAL STATISTIC: RMS
  Property ID: TC
 251 ID: T_180_RMS
     QUANTITY: THERMOCOUPLE
     Coordinates (X,Y,Z):   -1.071429E-02    1.000000E-03    1.800000E+00
     TEMPORAL STATISTIC: RMS
  Property ID: TC
 252 ID: T_180_RMS
     QUANTITY: THERMOCOUPLE
     Coordinates (X,Y,Z):    3.142857E-02    1.000000E-03    1.800000E+00
     TEMPORAL STATISTIC: RMS
  Property ID: TC
 253 ID: T_180_RMS
     QUANTITY: THERMOCOUPLE
     Coordinates (X,Y,Z):    7.357143E-02    1.000000E-03    1.800000E+00
     TEMPORAL STATISTIC: RMS
  Property ID: TC
 254 ID: T_180_RMS
     QUANTITY: THERMOCOUPLE
     Coordinates (X,Y,Z):    1.157143E-01    1.000000E-03    1.800000E+00
     TEMPORAL STATISTIC: RMS
  Property ID: TC
 255 ID: T_180_RMS
     QUANTITY: THERMOCOUPLE
     Coordinates (X,Y,Z):    1.578571E-01    1.000000E-03    1.800000E+00
     TEMPORAL STATISTIC: RMS
  Property ID: TC
 256 ID: T_180_RMS
     QUANTITY: THERMOCOUPLE
     Coordinates (X,Y,Z):    2.000000E-01    1.000000E-03    1.800000E+00
     TEMPORAL STATISTIC: RMS
  Property ID: TC
 257 ID: T_180_RMS
     QUANTITY: THERMOCOUPLE
     Coordinates (X,Y,Z):    2.421429E-01    1.000000E-03    1.800000E+00
     TEMPORAL STATISTIC: RMS
  Property ID: TC
 258 ID: T_180_RMS
     QUANTITY: THERMOCOUPLE
     Coordinates (X,Y,Z):    2.842857E-01    1.000000E-03    1.800000E+00
     TEMPORAL STATISTIC: RMS
  Property ID: TC
 259 ID: T_180_RMS
     QUANTITY: THERMOCOUPLE
     Coordinates (X,Y,Z):    3.264286E-01    1.000000E-03    1.800000E+00
     TEMPORAL STATISTIC: RMS
  Property ID: TC
 260 ID: T_180_RMS
     QUANTITY: THERMOCOUPLE
     Coordinates (X,Y,Z):    3.685714E-01    1.000000E-03    1.800000E+00
     TEMPORAL STATISTIC: RMS
  Property ID: TC
 261 ID: T_180_RMS
     QUANTITY: THERMOCOUPLE
     Coordinates (X,Y,Z):    4.107143E-01    1.000000E-03    1.800000E+00
     TEMPORAL STATISTIC: RMS
  Property ID: TC
 262 ID: T_180_RMS
     QUANTITY: THERMOCOUPLE
     Coordinates (X,Y,Z):    4.528571E-01    1.000000E-03    1.800000E+00
     TEMPORAL STATISTIC: RMS
  Property ID: TC
 263 ID: T_180_RMS
     QUANTITY: THERMOCOUPLE
     Coordinates (X,Y,Z):    4.950000E-01    1.000000E-03    1.800000E+00
     TEMPORAL STATISTIC: RMS
  Property ID: TC
 264 ID: HF_00
     QUANTITY: RADIATIVE HEAT FLUX
     Coordinates (X,Y,Z):    5.200000E-01    1.000000E-03    0.000000E+00
     TEMPORAL STATISTIC: RUNNING AVERAGE
 265 ID: HF_00
     QUANTITY: RADIATIVE HEAT FLUX
     Coordinates (X,Y,Z):    5.648000E-01    2.990000E-03    0.000000E+00
     TEMPORAL STATISTIC: RUNNING AVERAGE
 266 ID: HF_00
     QUANTITY: RADIATIVE HEAT FLUX
     Coordinates (X,Y,Z):    6.096000E-01    4.980000E-03    0.000000E+00
     TEMPORAL STATISTIC: RUNNING AVERAGE
 267 ID: HF_00
     QUANTITY: RADIATIVE HEAT FLUX
     Coordinates (X,Y,Z):    6.544000E-01    6.970000E-03    0.000000E+00
     TEMPORAL STATISTIC: RUNNING AVERAGE
 268 ID: HF_00
     QUANTITY: RADIATIVE HEAT FLUX
     Coordinates (X,Y,Z):    6.992000E-01    8.960000E-03    0.000000E+00
     TEMPORAL STATISTIC: RUNNING AVERAGE
 269 ID: HF_00
     QUANTITY: RADIATIVE HEAT FLUX
     Coordinates (X,Y,Z):    7.440000E-01    1.095000E-02    0.000000E+00
     TEMPORAL STATISTIC: RUNNING AVERAGE
 270 ID: HF_00
     QUANTITY: RADIATIVE HEAT FLUX
     Coordinates (X,Y,Z):    7.888000E-01    1.294000E-02    0.000000E+00
     TEMPORAL STATISTIC: RUNNING AVERAGE
 271 ID: HF_00
     QUANTITY: RADIATIVE HEAT FLUX
     Coordinates (X,Y,Z):    8.336000E-01    1.493000E-02    0.000000E+00
     TEMPORAL STATISTIC: RUNNING AVERAGE
 272 ID: HF_00
     QUANTITY: RADIATIVE HEAT FLUX
     Coordinates (X,Y,Z):    8.784000E-01    1.692000E-02    0.000000E+00
     TEMPORAL STATISTIC: RUNNING AVERAGE
 273 ID: HF_00
     QUANTITY: RADIATIVE HEAT FLUX
     Coordinates (X,Y,Z):    9.232000E-01    1.891000E-02    0.000000E+00
     TEMPORAL STATISTIC: RUNNING AVERAGE
 274 ID: HF_00
     QUANTITY: RADIATIVE HEAT FLUX
     Coordinates (X,Y,Z):    9.680000E-01    2.090000E-02    0.000000E+00
     TEMPORAL STATISTIC: RUNNING AVERAGE
 275 ID: HF_00
     QUANTITY: RADIATIVE HEAT FLUX
     Coordinates (X,Y,Z):    1.012800E+00    2.289000E-02    0.000000E+00
     TEMPORAL STATISTIC: RUNNING AVERAGE
 276 ID: HF_00
     QUANTITY: RADIATIVE HEAT FLUX
     Coordinates (X,Y,Z):    1.057600E+00    2.488000E-02    0.000000E+00
     TEMPORAL STATISTIC: RUNNING AVERAGE
 277 ID: HF_00
     QUANTITY: RADIATIVE HEAT FLUX
     Coordinates (X,Y,Z):    1.102400E+00    2.687000E-02    0.000000E+00
     TEMPORAL STATISTIC: RUNNING AVERAGE
 278 ID: HF_00
     QUANTITY: RADIATIVE HEAT FLUX
     Coordinates (X,Y,Z):    1.147200E+00    2.886000E-02    0.000000E+00
     TEMPORAL STATISTIC: RUNNING AVERAGE
 279 ID: HF_00
     QUANTITY: RADIATIVE HEAT FLUX
     Coordinates (X,Y,Z):    1.192000E+00    3.085000E-02    0.000000E+00
     TEMPORAL STATISTIC: RUNNING AVERAGE
 280 ID: HF_00
     QUANTITY: RADIATIVE HEAT FLUX
     Coordinates (X,Y,Z):    1.236800E+00    3.284000E-02    0.000000E+00
     TEMPORAL STATISTIC: RUNNING AVERAGE
 281 ID: HF_00
     QUANTITY: RADIATIVE HEAT FLUX
     Coordinates (X,Y,Z):    1.281600E+00    3.483000E-02    0.000000E+00
     TEMPORAL STATISTIC: RUNNING AVERAGE
 282 ID: HF_00
     QUANTITY: RADIATIVE HEAT FLUX
     Coordinates (X,Y,Z):    1.326400E+00    3.682000E-02    0.000000E+00
     TEMPORAL STATISTIC: RUNNING AVERAGE
 283 ID: HF_00
     QUANTITY: RADIATIVE HEAT FLUX
     Coordinates (X,Y,Z):    1.371200E+00    3.881000E-02    0.000000E+00
     TEMPORAL STATISTIC: RUNNING AVERAGE
 284 ID: HF_00
     QUANTITY: RADIATIVE HEAT FLUX
     Coordinates (X,Y,Z):    1.416000E+00    4.080000E-02    0.000000E+00
     TEMPORAL STATISTIC: RUNNING AVERAGE
 285 ID: HF_00
     QUANTITY: RADIATIVE HEAT FLUX
     Coordinates (X,Y,Z):    1.460800E+00    4.279000E-02    0.000000E+00
     TEMPORAL STATISTIC: RUNNING AVERAGE
 286 ID: HF_00
     QUANTITY: RADIATIVE HEAT FLUX
     Coordinates (X,Y,Z):    1.505600E+00    4.478000E-02    0.000000E+00
     TEMPORAL STATISTIC: RUNNING AVERAGE
 287 ID: HF_00
     QUANTITY: RADIATIVE HEAT FLUX
     Coordinates (X,Y,Z):    1.550400E+00    4.677000E-02    0.000000E+00
     TEMPORAL STATISTIC: RUNNING AVERAGE
 288 ID: HF_00
     QUANTITY: RADIATIVE HEAT FLUX
     Coordinates (X,Y,Z):    1.595200E+00    4.876000E-02    0.000000E+00
     TEMPORAL STATISTIC: RUNNING AVERAGE
 289 ID: HF_00
     QUANTITY: RADIATIVE HEAT FLUX
     Coordinates (X,Y,Z):    1.640000E+00    5.075000E-02    0.000000E+00
     TEMPORAL STATISTIC: RUNNING AVERAGE
 290 ID: HF_00
     QUANTITY: RADIATIVE HEAT FLUX
     Coordinates (X,Y,Z):    1.684800E+00    5.274000E-02    0.000000E+00
     TEMPORAL STATISTIC: RUNNING AVERAGE
 291 ID: HF_00
     QUANTITY: RADIATIVE HEAT FLUX
     Coordinates (X,Y,Z):    1.729600E+00    5.473000E-02    0.000000E+00
     TEMPORAL STATISTIC: RUNNING AVERAGE
 292 ID: HF_00
     QUANTITY: RADIATIVE HEAT FLUX
     Coordinates (X,Y,Z):    1.774400E+00    5.672000E-02    0.000000E+00
     TEMPORAL STATISTIC: RUNNING AVERAGE
 293 ID: HF_00
     QUANTITY: RADIATIVE HEAT FLUX
     Coordinates (X,Y,Z):    1.819200E+00    5.871000E-02    0.000000E+00
     TEMPORAL STATISTIC: RUNNING AVERAGE
 294 ID: HF_00
     QUANTITY: RADIATIVE HEAT FLUX
     Coordinates (X,Y,Z):    1.864000E+00    6.070000E-02    0.000000E+00
     TEMPORAL STATISTIC: RUNNING AVERAGE
 295 ID: HF_00
     QUANTITY: RADIATIVE HEAT FLUX
     Coordinates (X,Y,Z):    1.908800E+00    6.269000E-02    0.000000E+00
     TEMPORAL STATISTIC: RUNNING AVERAGE
 296 ID: HF_00
     QUANTITY: RADIATIVE HEAT FLUX
     Coordinates (X,Y,Z):    1.953600E+00    6.468000E-02    0.000000E+00
     TEMPORAL STATISTIC: RUNNING AVERAGE
 297 ID: HF_00
     QUANTITY: RADIATIVE HEAT FLUX
     Coordinates (X,Y,Z):    1.998400E+00    6.667000E-02    0.000000E+00
     TEMPORAL STATISTIC: RUNNING AVERAGE
 298 ID: HF_00
     QUANTITY: RADIATIVE HEAT FLUX
     Coordinates (X,Y,Z):    2.043200E+00    6.866000E-02    0.000000E+00
     TEMPORAL STATISTIC: RUNNING AVERAGE
 299 ID: HF_00
     QUANTITY: RADIATIVE HEAT FLUX
     Coordinates (X,Y,Z):    2.088000E+00    7.065000E-02    0.000000E+00
     TEMPORAL STATISTIC: RUNNING AVERAGE
 300 ID: HF_00
     QUANTITY: RADIATIVE HEAT FLUX
     Coordinates (X,Y,Z):    2.132800E+00    7.264000E-02    0.000000E+00
     TEMPORAL STATISTIC: RUNNING AVERAGE
 301 ID: HF_00
     QUANTITY: RADIATIVE HEAT FLUX
     Coordinates (X,Y,Z):    2.177600E+00    7.463000E-02    0.000000E+00
     TEMPORAL STATISTIC: RUNNING AVERAGE
 302 ID: HF_00
     QUANTITY: RADIATIVE HEAT FLUX
     Coordinates (X,Y,Z):    2.222400E+00    7.662000E-02    0.000000E+00
     TEMPORAL STATISTIC: RUNNING AVERAGE
 303 ID: HF_00
     QUANTITY: RADIATIVE HEAT FLUX
     Coordinates (X,Y,Z):    2.267200E+00    7.861000E-02    0.000000E+00
     TEMPORAL STATISTIC: RUNNING AVERAGE
 304 ID: HF_00
     QUANTITY: RADIATIVE HEAT FLUX
     Coordinates (X,Y,Z):    2.312000E+00    8.060000E-02    0.000000E+00
     TEMPORAL STATISTIC: RUNNING AVERAGE
 305 ID: HF_00
     QUANTITY: RADIATIVE HEAT FLUX
     Coordinates (X,Y,Z):    2.356800E+00    8.259000E-02    0.000000E+00
     TEMPORAL STATISTIC: RUNNING AVERAGE
 306 ID: HF_00
     QUANTITY: RADIATIVE HEAT FLUX
     Coordinates (X,Y,Z):    2.401600E+00    8.458000E-02    0.000000E+00
     TEMPORAL STATISTIC: RUNNING AVERAGE
 307 ID: HF_00
     QUANTITY: RADIATIVE HEAT FLUX
     Coordinates (X,Y,Z):    2.446400E+00    8.657000E-02    0.000000E+00
     TEMPORAL STATISTIC: RUNNING AVERAGE
 308 ID: HF_00
     QUANTITY: RADIATIVE HEAT FLUX
     Coordinates (X,Y,Z):    2.491200E+00    8.856000E-02    0.000000E+00
     TEMPORAL STATISTIC: RUNNING AVERAGE
 309 ID: HF_00
     QUANTITY: RADIATIVE HEAT FLUX
     Coordinates (X,Y,Z):    2.536000E+00    9.055000E-02    0.000000E+00
     TEMPORAL STATISTIC: RUNNING AVERAGE
 310 ID: HF_00
     QUANTITY: RADIATIVE HEAT FLUX
     Coordinates (X,Y,Z):    2.580800E+00    9.254000E-02    0.000000E+00
     TEMPORAL STATISTIC: RUNNING AVERAGE
 311 ID: HF_00
     QUANTITY: RADIATIVE HEAT FLUX
     Coordinates (X,Y,Z):    2.625600E+00    9.453000E-02    0.000000E+00
     TEMPORAL STATISTIC: RUNNING AVERAGE
 312 ID: HF_00
     QUANTITY: RADIATIVE HEAT FLUX
     Coordinates (X,Y,Z):    2.670400E+00    9.652000E-02    0.000000E+00
     TEMPORAL STATISTIC: RUNNING AVERAGE
 313 ID: HF_00
     QUANTITY: RADIATIVE HEAT FLUX
     Coordinates (X,Y,Z):    2.715200E+00    9.851000E-02    0.000000E+00
     TEMPORAL STATISTIC: RUNNING AVERAGE
 314 ID: HF_00
     QUANTITY: RADIATIVE HEAT FLUX
     Coordinates (X,Y,Z):    2.760000E+00    1.005000E-01    0.000000E+00
     TEMPORAL STATISTIC: RUNNING AVERAGE
 315 ID: HF_00
     QUANTITY: RADIATIVE HEAT FLUX
     Coordinates (X,Y,Z):    2.804800E+00    1.024900E-01    0.000000E+00
     TEMPORAL STATISTIC: RUNNING AVERAGE
 316 ID: HF_00
     QUANTITY: RADIATIVE HEAT FLUX
     Coordinates (X,Y,Z):    2.849600E+00    1.044800E-01    0.000000E+00
     TEMPORAL STATISTIC: RUNNING AVERAGE
 317 ID: HF_00
     QUANTITY: RADIATIVE HEAT FLUX
     Coordinates (X,Y,Z):    2.894400E+00    1.064700E-01    0.000000E+00
     TEMPORAL STATISTIC: RUNNING AVERAGE
 318 ID: HF_00
     QUANTITY: RADIATIVE HEAT FLUX
     Coordinates (X,Y,Z):    2.939200E+00    1.084600E-01    0.000000E+00
     TEMPORAL STATISTIC: RUNNING AVERAGE
 319 ID: HF_00
     QUANTITY: RADIATIVE HEAT FLUX
     Coordinates (X,Y,Z):    2.984000E+00    1.104500E-01    0.000000E+00
     TEMPORAL STATISTIC: RUNNING AVERAGE
 320 ID: HF_00
     QUANTITY: RADIATIVE HEAT FLUX
     Coordinates (X,Y,Z):    3.028800E+00    1.124400E-01    0.000000E+00
     TEMPORAL STATISTIC: RUNNING AVERAGE
 321 ID: HF_00
     QUANTITY: RADIATIVE HEAT FLUX
     Coordinates (X,Y,Z):    3.073600E+00    1.144300E-01    0.000000E+00
     TEMPORAL STATISTIC: RUNNING AVERAGE
 322 ID: HF_00
     QUANTITY: RADIATIVE HEAT FLUX
     Coordinates (X,Y,Z):    3.118400E+00    1.164200E-01    0.000000E+00
     TEMPORAL STATISTIC: RUNNING AVERAGE
 323 ID: HF_00
     QUANTITY: RADIATIVE HEAT FLUX
     Coordinates (X,Y,Z):    3.163200E+00    1.184100E-01    0.000000E+00
     TEMPORAL STATISTIC: RUNNING AVERAGE
 324 ID: HF_00
     QUANTITY: RADIATIVE HEAT FLUX
     Coordinates (X,Y,Z):    3.208000E+00    1.204000E-01    0.000000E+00
     TEMPORAL STATISTIC: RUNNING AVERAGE
 325 ID: HF_00
     QUANTITY: RADIATIVE HEAT FLUX
     Coordinates (X,Y,Z):    3.252800E+00    1.223900E-01    0.000000E+00
     TEMPORAL STATISTIC: RUNNING AVERAGE
 326 ID: HF_00
     QUANTITY: RADIATIVE HEAT FLUX
     Coordinates (X,Y,Z):    3.297600E+00    1.243800E-01    0.000000E+00
     TEMPORAL STATISTIC: RUNNING AVERAGE
 327 ID: HF_00
     QUANTITY: RADIATIVE HEAT FLUX
     Coordinates (X,Y,Z):    3.342400E+00    1.263700E-01    0.000000E+00
     TEMPORAL STATISTIC: RUNNING AVERAGE
 328 ID: HF_00
     QUANTITY: RADIATIVE HEAT FLUX
     Coordinates (X,Y,Z):    3.387200E+00    1.283600E-01    0.000000E+00
     TEMPORAL STATISTIC: RUNNING AVERAGE
 329 ID: HF_00
     QUANTITY: RADIATIVE HEAT FLUX
     Coordinates (X,Y,Z):    3.432000E+00    1.303500E-01    0.000000E+00
     TEMPORAL STATISTIC: RUNNING AVERAGE
 330 ID: HF_00
     QUANTITY: RADIATIVE HEAT FLUX
     Coordinates (X,Y,Z):    3.476800E+00    1.323400E-01    0.000000E+00
     TEMPORAL STATISTIC: RUNNING AVERAGE
 331 ID: HF_00
     QUANTITY: RADIATIVE HEAT FLUX
     Coordinates (X,Y,Z):    3.521600E+00    1.343300E-01    0.000000E+00
     TEMPORAL STATISTIC: RUNNING AVERAGE
 332 ID: HF_00
     QUANTITY: RADIATIVE HEAT FLUX
     Coordinates (X,Y,Z):    3.566400E+00    1.363200E-01    0.000000E+00
     TEMPORAL STATISTIC: RUNNING AVERAGE
 333 ID: HF_00
     QUANTITY: RADIATIVE HEAT FLUX
     Coordinates (X,Y,Z):    3.611200E+00    1.383100E-01    0.000000E+00
     TEMPORAL STATISTIC: RUNNING AVERAGE
 334 ID: HF_00
     QUANTITY: RADIATIVE HEAT FLUX
     Coordinates (X,Y,Z):    3.656000E+00    1.403000E-01    0.000000E+00
     TEMPORAL STATISTIC: RUNNING AVERAGE
 335 ID: HF_00
     QUANTITY: RADIATIVE HEAT FLUX
     Coordinates (X,Y,Z):    3.700800E+00    1.422900E-01    0.000000E+00
     TEMPORAL STATISTIC: RUNNING AVERAGE
 336 ID: HF_00
     QUANTITY: RADIATIVE HEAT FLUX
     Coordinates (X,Y,Z):    3.745600E+00    1.442800E-01    0.000000E+00
     TEMPORAL STATISTIC: RUNNING AVERAGE
 337 ID: HF_00
     QUANTITY: RADIATIVE HEAT FLUX
     Coordinates (X,Y,Z):    3.790400E+00    1.462700E-01    0.000000E+00
     TEMPORAL STATISTIC: RUNNING AVERAGE
 338 ID: HF_00
     QUANTITY: RADIATIVE HEAT FLUX
     Coordinates (X,Y,Z):    3.835200E+00    1.482600E-01    0.000000E+00
     TEMPORAL STATISTIC: RUNNING AVERAGE
 339 ID: HF_00
     QUANTITY: RADIATIVE HEAT FLUX
     Coordinates (X,Y,Z):    3.880000E+00    1.502500E-01    0.000000E+00
     TEMPORAL STATISTIC: RUNNING AVERAGE
 340 ID: HF_00
     QUANTITY: RADIATIVE HEAT FLUX
     Coordinates (X,Y,Z):    3.924800E+00    1.522400E-01    0.000000E+00
     TEMPORAL STATISTIC: RUNNING AVERAGE
 341 ID: HF_00
     QUANTITY: RADIATIVE HEAT FLUX
     Coordinates (X,Y,Z):    3.969600E+00    1.542300E-01    0.000000E+00
     TEMPORAL STATISTIC: RUNNING AVERAGE
 342 ID: HF_00
     QUANTITY: RADIATIVE HEAT FLUX
     Coordinates (X,Y,Z):    4.014400E+00    1.562200E-01    0.000000E+00
     TEMPORAL STATISTIC: RUNNING AVERAGE
 343 ID: HF_00
     QUANTITY: RADIATIVE HEAT FLUX
     Coordinates (X,Y,Z):    4.059200E+00    1.582100E-01    0.000000E+00
     TEMPORAL STATISTIC: RUNNING AVERAGE
 344 ID: HF_00
     QUANTITY: RADIATIVE HEAT FLUX
     Coordinates (X,Y,Z):    4.104000E+00    1.602000E-01    0.000000E+00
     TEMPORAL STATISTIC: RUNNING AVERAGE
 345 ID: HF_00
     QUANTITY: RADIATIVE HEAT FLUX
     Coordinates (X,Y,Z):    4.148800E+00    1.621900E-01    0.000000E+00
     TEMPORAL STATISTIC: RUNNING AVERAGE
 346 ID: HF_00
     QUANTITY: RADIATIVE HEAT FLUX
     Coordinates (X,Y,Z):    4.193600E+00    1.641800E-01    0.000000E+00
     TEMPORAL STATISTIC: RUNNING AVERAGE
 347 ID: HF_00
     QUANTITY: RADIATIVE HEAT FLUX
     Coordinates (X,Y,Z):    4.238400E+00    1.661700E-01    0.000000E+00
     TEMPORAL STATISTIC: RUNNING AVERAGE
 348 ID: HF_00
     QUANTITY: RADIATIVE HEAT FLUX
     Coordinates (X,Y,Z):    4.283200E+00    1.681600E-01    0.000000E+00
     TEMPORAL STATISTIC: RUNNING AVERAGE
 349 ID: HF_00
     QUANTITY: RADIATIVE HEAT FLUX
     Coordinates (X,Y,Z):    4.328000E+00    1.701500E-01    0.000000E+00
     TEMPORAL STATISTIC: RUNNING AVERAGE
 350 ID: HF_00
     QUANTITY: RADIATIVE HEAT FLUX
     Coordinates (X,Y,Z):    4.372800E+00    1.721400E-01    0.000000E+00
     TEMPORAL STATISTIC: RUNNING AVERAGE
 351 ID: HF_00
     QUANTITY: RADIATIVE HEAT FLUX
     Coordinates (X,Y,Z):    4.417600E+00    1.741300E-01    0.000000E+00
     TEMPORAL STATISTIC: RUNNING AVERAGE
 352 ID: HF_00
     QUANTITY: RADIATIVE HEAT FLUX
     Coordinates (X,Y,Z):    4.462400E+00    1.761200E-01    0.000000E+00
     TEMPORAL STATISTIC: RUNNING AVERAGE
 353 ID: HF_00
     QUANTITY: RADIATIVE HEAT FLUX
     Coordinates (X,Y,Z):    4.507200E+00    1.781100E-01    0.000000E+00
     TEMPORAL STATISTIC: RUNNING AVERAGE
 354 ID: HF_00
     QUANTITY: RADIATIVE HEAT FLUX
     Coordinates (X,Y,Z):    4.552000E+00    1.801000E-01    0.000000E+00
     TEMPORAL STATISTIC: RUNNING AVERAGE
 355 ID: HF_00
     QUANTITY: RADIATIVE HEAT FLUX
     Coordinates (X,Y,Z):    4.596800E+00    1.820900E-01    0.000000E+00
     TEMPORAL STATISTIC: RUNNING AVERAGE
 356 ID: HF_00
     QUANTITY: RADIATIVE HEAT FLUX
     Coordinates (X,Y,Z):    4.641600E+00    1.840800E-01    0.000000E+00
     TEMPORAL STATISTIC: RUNNING AVERAGE
 357 ID: HF_00
[...]
 
 

 Run Time Diagnostics

 Time Step:      1, Simulation Time:     0.040 s, Step Size: 0.03992 s, Pressure Iterations: 1
 Time Step:      2, Simulation Time:     0.080 s, Step Size: 0.03992 s, Pressure Iterations: 1
 Time Step:      3, Simulation Time:      0.12 s, Step Size: 0.03992 s, Pressure Iterations: 1
 Time Step:      4, Simulation Time:      0.16 s, Step Size: 0.03992 s, Pressure Iterations: 1
 Time Step:      5, Simulation Time:      0.20 s, Step Size: 0.03992 s, Pressure Iterations: 1
 Time Step:      6, Simulation Time:      0.24 s, Step Size: 0.03992 s, Pressure Iterations: 1
 Time Step:      7, Simulation Time:      0.28 s, Step Size: 0.03992 s, Pressure Iterations: 1
 Time Step:      8, Simulation Time:      0.32 s, Step Size: 0.03992 s, Pressure Iterations: 1
 Time Step:      9, Simulation Time:      0.36 s, Step Size: 0.03992 s, Pressure Iterations: 1
 Time Step:     10, Simulation Time:      0.40 s, Step Size: 0.03992 s, Pressure Iterations: 1
 Time Step:     20, Simulation Time:      0.80 s, Step Size: 0.03992 s, Pressure Iterations: 1
 Time Step:     30, Simulation Time:      1.20 s, Step Size: 0.03992 s, Pressure Iterations: 1
 Time Step:     40, Simulation Time:      1.60 s, Step Size: 0.03992 s, Pressure Iterations: 1
 Time Step:     50, Simulation Time:      2.00 s, Step Size: 0.03992 s, Pressure Iterations: 1
 Time Step:     60, Simulation Time:      2.39 s, Step Size: 0.03992 s, Pressure Iterations: 1
 Time Step:     70, Simulation Time:      2.79 s, Step Size: 0.03588 s, Pressure Iterations: 1
 Time Step:     80, Simulation Time:      3.06 s, Step Size: 0.02252 s, Pressure Iterations: 2
 Time Step:     90, Simulation Time:      3.24 s, Step Size: 0.01733 s, Pressure Iterations: 2
 Time Step:    100, Simulation Time:      3.40 s, Step Size: 0.01498 s, Pressure Iterations: 3
 Time Step:    200, Simulation Time:      4.19 s, Step Size: 0.00448 s, Pressure Iterations: 4
 Time Step:    300, Simulation Time:      4.52 s, Step Size: 0.00297 s, Pressure Iterations: 5
 Time Step:    400, Simulation Time:      4.79 s, Step Size: 0.00300 s, Pressure Iterations: 5
 Time Step:    500, Simulation Time:      5.07 s, Step Size: 0.00285 s, Pressure Iterations: 6
 Time Step:    600, Simulation Time:      5.34 s, Step Size: 0.00280 s, Pressure Iterations: 5
 Time Step:    700, Simulation Time:      5.60 s, Step Size: 0.00241 s, Pressure Iterations: 6
 Time Step:    800, Simulation Time:      5.85 s, Step Size: 0.00241 s, Pressure Iterations: 5
 Time Step:    900, Simulation Time:      6.11 s, Step Size: 0.00253 s, Pressure Iterations: 5
 Time Step:   1000, Simulation Time:      6.36 s, Step Size: 0.00272 s, Pressure Iterations: 5
 Time Step:   1100, Simulation Time:      6.61 s, Step Size: 0.00178 s, Pressure Iterations: 4
 Time Step:   1200, Simulation Time:      6.84 s, Step Size: 0.00229 s, Pressure Iterations: 6
 Time Step:   1300, Simulation Time:      7.07 s, Step Size: 0.00252 s, Pressure Iterations: 5
 Time Step:   1400, Simulation Time:      7.31 s, Step Size: 0.00229 s, Pressure Iterations: 6
 Time Step:   1500, Simulation Time:      7.53 s, Step Size: 0.00204 s, Pressure Iterations: 5
 Time Step:   1600, Simulation Time:      7.77 s, Step Size: 0.00235 s, Pressure Iterations: 7
 Time Step:   1700, Simulation Time:      8.01 s, Step Size: 0.00251 s, Pressure Iterations: 5
 Time Step:   1800, Simulation Time:      8.25 s, Step Size: 0.00246 s, Pressure Iterations: 6
 Time Step:   1900, Simulation Time:      8.50 s, Step Size: 0.00221 s, Pressure Iterations: 5
 Time Step:   2000, Simulation Time:      8.73 s, Step Size: 0.00243 s, Pressure Iterations: 5
 Time Step:   2100, Simulation Time:      8.98 s, Step Size: 0.00240 s, Pressure Iterations: 6
 Time Step:   2200, Simulation Time:      9.23 s, Step Size: 0.00238 s, Pressure Iterations: 7
 Time Step:   2300, Simulation Time:      9.46 s, Step Size: 0.00226 s, Pressure Iterations: 6
 Time Step:   2400, Simulation Time:      9.71 s, Step Size: 0.00248 s, Pressure Iterations: 8
 Time Step:   2500, Simulation Time:      9.94 s, Step Size: 0.00220 s, Pressure Iterations: 6
 Time Step:   2600, Simulation Time:     10.18 s, Step Size: 0.00266 s, Pressure Iterations: 5
 Time Step:   2700, Simulation Time:     10.44 s, Step Size: 0.00237 s, Pressure Iterations: 6
 Time Step:   2800, Simulation Time:     10.68 s, Step Size: 0.00253 s, Pressure Iterations: 5
 Time Step:   2900, Simulation Time:     10.93 s, Step Size: 0.00224 s, Pressure Iterations: 6
 Time Step:   3000, Simulation Time:     11.15 s, Step Size: 0.00222 s, Pressure Iterations: 8
 Time Step:   3100, Simulation Time:     11.38 s, Step Size: 0.00219 s, Pressure Iterations: 7
 Time Step:   3200, Simulation Time:     11.60 s, Step Size: 0.00215 s, Pressure Iterations: 5
 Time Step:   3300, Simulation Time:     11.82 s, Step Size: 0.00170 s, Pressure Iterations: 4
 Time Step:   3400, Simulation Time:     12.04 s, Step Size: 0.00214 s, Pressure Iterations: 6
 Time Step:   3500, Simulation Time:     12.26 s, Step Size: 0.00253 s, Pressure Iterations: 5
 Time Step:   3600, Simulation Time:     12.49 s, Step Size: 0.00223 s, Pressure Iterations: 5
 Time Step:   3700, Simulation Time:     12.72 s, Step Size: 0.00250 s, Pressure Iterations: 7
 Time Step:   3800, Simulation Time:     12.97 s, Step Size: 0.00205 s, Pressure Iterations: 4
 Time Step:   3900, Simulation Time:     13.18 s, Step Size: 0.00202 s, Pressure Iterations: 7
 Time Step:   4000, Simulation Time:     13.39 s, Step Size: 0.00236 s, Pressure Iterations: 5
 Time Step:   4100, Simulation Time:     13.62 s, Step Size: 0.00231 s, Pressure Iterations: 7
 Time Step:   4200, Simulation Time:     13.87 s, Step Size: 0.00264 s, Pressure Iterations: 8
 Time Step:   4300, Simulation Time:     14.09 s, Step Size: 0.00214 s, Pressure Iterations: 8
 Time Step:   4400, Simulation Time:     14.32 s, Step Size: 0.00226 s, Pressure Iterations: 5
 Time Step:   4500, Simulation Time:     14.55 s, Step Size: 0.00245 s, Pressure Iterations: 5
 Time Step:   4600, Simulation Time:     14.80 s, Step Size: 0.00241 s, Pressure Iterations: 6
 Time Step:   4700, Simulation Time:     15.06 s, Step Size: 0.00265 s, Pressure Iterations: 5
 Time Step:   4800, Simulation Time:     15.28 s, Step Size: 0.00225 s, Pressure Iterations: 6
 Time Step:   4900, Simulation Time:     15.51 s, Step Size: 0.00243 s, Pressure Iterations: 6
 Time Step:   5000, Simulation Time:     15.74 s, Step Size: 0.00230 s, Pressure Iterations: 7
 Time Step:   5100, Simulation Time:     15.97 s, Step Size: 0.00274 s, Pressure Iterations: 8
 Time Step:   5200, Simulation Time:     16.22 s, Step Size: 0.00218 s, Pressure Iterations: 5
 Time Step:   5300, Simulation Time:     16.43 s, Step Size: 0.00203 s, Pressure Iterations: 7
 Time Step:   5400, Simulation Time:     16.65 s, Step Size: 0.00209 s, Pressure Iterations: 5
 Time Step:   5500, Simulation Time:     16.88 s, Step Size: 0.00241 s, Pressure Iterations: 5
 Time Step:   5600, Simulation Time:     17.10 s, Step Size: 0.00215 s, Pressure Iterations: 5
 Time Step:   5700, Simulation Time:     17.32 s, Step Size: 0.00206 s, Pressure Iterations: 7
 Time Step:   5800, Simulation Time:     17.55 s, Step Size: 0.00236 s, Pressure Iterations: 5
 Time Step:   5900, Simulation Time:     17.78 s, Step Size: 0.00230 s, Pressure Iterations: 6
 Time Step:   6000, Simulation Time:     18.00 s, Step Size: 0.00221 s, Pressure Iterations: 5
 Time Step:   6100, Simulation Time:     18.23 s, Step Size: 0.00217 s, Pressure Iterations: 6
 Time Step:   6200, Simulation Time:     18.44 s, Step Size: 0.00234 s, Pressure Iterations: 5
 Time Step:   6300, Simulation Time:     18.67 s, Step Size: 0.00251 s, Pressure Iterations: 6
 Time Step:   6400, Simulation Time:     18.90 s, Step Size: 0.00208 s, Pressure Iterations: 7
 Time Step:   6500, Simulation Time:     19.13 s, Step Size: 0.00245 s, Pressure Iterations: 5
 Time Step:   6600, Simulation Time:     19.37 s, Step Size: 0.00215 s, Pressure Iterations: 7
 Time Step:   6700, Simulation Time:     19.60 s, Step Size: 0.00260 s, Pressure Iterations: 7
 Time Step:   6800, Simulation Time:     19.84 s, Step Size: 0.00210 s, Pressure Iterations: 7
 Time Step:   6900, Simulation Time:     20.08 s, Step Size: 0.00225 s, Pressure Iterations: 6
 Time Step:   7000, Simulation Time:     20.30 s, Step Size: 0.00221 s, Pressure Iterations: 7
 Time Step:   7100, Simulation Time:     20.53 s, Step Size: 0.00210 s, Pressure Iterations: 6
 Time Step:   7200, Simulation Time:     20.75 s, Step Size: 0.00210 s, Pressure Iterations: 6
 Time Step:   7300, Simulation Time:     20.96 s, Step Size: 0.00210 s, Pressure Iterations: 6
 Time Step:   7400, Simulation Time:     21.17 s, Step Size: 0.00222 s, Pressure Iterations: 6
 Time Step:   7500, Simulation Time:     21.40 s, Step Size: 0.00217 s, Pressure Iterations: 6
 Time Step:   7600, Simulation Time:     21.62 s, Step Size: 0.00229 s, Pressure Iterations: 6
 Time Step:   7700, Simulation Time:     21.86 s, Step Size: 0.00249 s, Pressure Iterations: 6
 Time Step:   7800, Simulation Time:     22.10 s, Step Size: 0.00234 s, Pressure Iterations: 9
 Time Step:   7900, Simulation Time:     22.31 s, Step Size: 0.00206 s, Pressure Iterations: 5
 Time Step:   8000, Simulation Time:     22.54 s, Step Size: 0.00231 s, Pressure Iterations: 8
 Time Step:   8100, Simulation Time:     22.76 s, Step Size: 0.00224 s, Pressure Iterations: 6
 Time Step:   8200, Simulation Time:     22.97 s, Step Size: 0.00199 s, Pressure Iterations: 4
 Time Step:   8300, Simulation Time:     23.19 s, Step Size: 0.00219 s, Pressure Iterations: 9
 Time Step:   8400, Simulation Time:     23.43 s, Step Size: 0.00222 s, Pressure Iterations: 5
 Time Step:   8500, Simulation Time:     23.65 s, Step Size: 0.00241 s, Pressure Iterations: 6
 Time Step:   8600, Simulation Time:     23.88 s, Step Size: 0.00235 s, Pressure Iterations: 5
 Time Step:   8700, Simulation Time:     24.11 s, Step Size: 0.00230 s, Pressure Iterations: 6
 Time Step:   8800, Simulation Time:     24.36 s, Step Size: 0.00219 s, Pressure Iterations: 5
 Time Step:   8900, Simulation Time:     24.56 s, Step Size: 0.00195 s, Pressure Iterations: 6
 Time Step:   9000, Simulation Time:     24.78 s, Step Size: 0.00236 s, Pressure Iterations: 5
 Time Step:   9100, Simulation Time:     25.00 s, Step Size: 0.00223 s, Pressure Iterations: 5
 Time Step:   9200, Simulation Time:     25.26 s, Step Size: 0.00270 s, Pressure Iterations: 5
 Time Step:   9300, Simulation Time:     25.53 s, Step Size: 0.00284 s, Pressure Iterations: 6
 Time Step:   9400, Simulation Time:     25.83 s, Step Size: 0.00312 s, Pressure Iterations: 5
 Time Step:   9500, Simulation Time:     26.14 s, Step Size: 0.00301 s, Pressure Iterations: 4
 Time Step:   9600, Simulation Time:     26.45 s, Step Size: 0.00320 s, Pressure Iterations: 5
 Time Step:   9700, Simulation Time:     26.78 s, Step Size: 0.00352 s, Pressure Iterations: 6
 Time Step:   9800, Simulation Time:     27.07 s, Step Size: 0.00296 s, Pressure Iterations: 4
 Time Step:   9900, Simulation Time:     27.38 s, Step Size: 0.00359 s, Pressure Iterations: 5
 Time Step:  10000, Simulation Time:     27.69 s, Step Size: 0.00315 s, Pressure Iterations: 5
 Time Step:  10100, Simulation Time:     28.01 s, Step Size: 0.00338 s, Pressure Iterations: 5
 Time Step:  10200, Simulation Time:     28.34 s, Step Size: 0.00304 s, Pressure Iterations: 5
 Time Step:  10300, Simulation Time:     28.64 s, Step Size: 0.00329 s, Pressure Iterations: 5
 Time Step:  10400, Simulation Time:     28.99 s, Step Size: 0.00320 s, Pressure Iterations: 5
 Time Step:  10500, Simulation Time:     29.31 s, Step Size: 0.00352 s, Pressure Iterations: 5
 Time Step:  10600, Simulation Time:     29.65 s, Step Size: 0.00335 s, Pressure Iterations: 5
 Time Step:  10700, Simulation Time:     29.99 s, Step Size: 0.00360 s, Pressure Iterations: 5
 Time Step:  10800, Simulation Time:     30.33 s, Step Size: 0.00317 s, Pressure Iterations: 5
 Time Step:  10900, Simulation Time:     30.67 s, Step Size: 0.00349 s, Pressure Iterations: 5
 Time Step:  11000, Simulation Time:     31.02 s, Step Size: 0.00349 s, Pressure Iterations: 5
 Time Step:  11100, Simulation Time:     31.36 s, Step Size: 0.00336 s, Pressure Iterations: 5
 Time Step:  11200, Simulation Time:     31.69 s, Step Size: 0.00361 s, Pressure Iterations: 5
 Time Step:  11300, Simulation Time:     32.02 s, Step Size: 0.00346 s, Pressure Iterations: 4
 Time Step:  11400, Simulation Time:     32.38 s, Step Size: 0.00337 s, Pressure Iterations: 5
 Time Step:  11500, Simulation Time:     32.72 s, Step Size: 0.00328 s, Pressure Iterations: 5
 Time Step:  11600, Simulation Time:     33.06 s, Step Size: 0.00361 s, Pressure Iterations: 5
 Time Step:  11700, Simulation Time:     33.39 s, Step Size: 0.00323 s, Pressure Iterations: 5
 Time Step:  11800, Simulation Time:     33.74 s, Step Size: 0.00355 s, Pressure Iterations: 5
 Time Step:  11900, Simulation Time:     34.09 s, Step Size: 0.00371 s, Pressure Iterations: 4
 Time Step:  12000, Simulation Time:     34.43 s, Step Size: 0.00358 s, Pressure Iterations: 5
 Time Step:  12100, Simulation Time:     34.80 s, Step Size: 0.00353 s, Pressure Iterations: 5
 Time Step:  12200, Simulation Time:     35.16 s, Step Size: 0.00329 s, Pressure Iterations: 5
 Time Step:  12300, Simulation Time:     35.51 s, Step Size: 0.00323 s, Pressure Iterations: 4
 Time Step:  12400, Simulation Time:     35.84 s, Step Size: 0.00311 s, Pressure Iterations: 4
 Time Step:  12500, Simulation Time:     36.18 s, Step Size: 0.00377 s, Pressure Iterations: 4
 Time Step:  12600, Simulation Time:     36.54 s, Step Size: 0.00360 s, Pressure Iterations: 4
 Time Step:  12700, Simulation Time:     36.90 s, Step Size: 0.00378 s, Pressure Iterations: 5
 Time Step:  12800, Simulation Time:     37.27 s, Step Size: 0.00358 s, Pressure Iterations: 4
 Time Step:  12900, Simulation Time:     37.62 s, Step Size: 0.00378 s, Pressure Iterations: 5
 Time Step:  13000, Simulation Time:     37.98 s, Step Size: 0.00340 s, Pressure Iterations: 5
 Time Step:  13100, Simulation Time:     38.35 s, Step Size: 0.00324 s, Pressure Iterations: 5
 Time Step:  13200, Simulation Time:     38.68 s, Step Size: 0.00349 s, Pressure Iterations: 5
 Time Step:  13300, Simulation Time:     39.06 s, Step Size: 0.00384 s, Pressure Iterations: 5
 Time Step:  13400, Simulation Time:     39.43 s, Step Size: 0.00376 s, Pressure Iterations: 5
 Time Step:  13500, Simulation Time:     39.82 s, Step Size: 0.00414 s, Pressure Iterations: 5
 Time Step:  13600, Simulation Time:     40.20 s, Step Size: 0.00370 s, Pressure Iterations: 5
 Time Step:  13700, Simulation Time:     40.56 s, Step Size: 0.00366 s, Pressure Iterations: 4
 Time Step:  13800, Simulation Time:     40.94 s, Step Size: 0.00397 s, Pressure Iterations: 4
 Time Step:  13900, Simulation Time:     41.34 s, Step Size: 0.00343 s, Pressure Iterations: 6
 Time Step:  14000, Simulation Time:     41.70 s, Step Size: 0.00336 s, Pressure Iterations: 4
 Time Step:  14100, Simulation Time:     42.06 s, Step Size: 0.00364 s, Pressure Iterations: 5
 Time Step:  14200, Simulation Time:     42.42 s, Step Size: 0.00364 s, Pressure Iterations: 5
 Time Step:  14300, Simulation Time:     42.77 s, Step Size: 0.00378 s, Pressure Iterations: 5
 Time Step:  14400, Simulation Time:     43.12 s, Step Size: 0.00331 s, Pressure Iterations: 5
 Time Step:  14500, Simulation Time:     43.49 s, Step Size: 0.00401 s, Pressure Iterations: 5
 Time Step:  14600, Simulation Time:     43.85 s, Step Size: 0.00381 s, Pressure Iterations: 6
 Time Step:  14700, Simulation Time:     44.21 s, Step Size: 0.00392 s, Pressure Iterations: 4
 Time Step:  14800, Simulation Time:     44.59 s, Step Size: 0.00331 s, Pressure Iterations: 4
 Time Step:  14900, Simulation Time:     44.94 s, Step Size: 0.00382 s, Pressure Iterations: 5
 Time Step:  15000, Simulation Time:     45.28 s, Step Size: 0.00391 s, Pressure Iterations: 5
 Time Step:  15100, Simulation Time:     45.66 s, Step Size: 0.00386 s, Pressure Iterations: 5
 Time Step:  15200, Simulation Time:     46.00 s, Step Size: 0.00365 s, Pressure Iterations: 6
 Time Step:  15300, Simulation Time:     46.38 s, Step Size: 0.00394 s, Pressure Iterations: 5
 Time Step:  15400, Simulation Time:     46.70 s, Step Size: 0.00316 s, Pressure Iterations: 5
 Time Step:  15500, Simulation Time:     47.05 s, Step Size: 0.00382 s, Pressure Iterations: 5
 Time Step:  15600, Simulation Time:     47.44 s, Step Size: 0.00420 s, Pressure Iterations: 5
 Time Step:  15700, Simulation Time:     47.80 s, Step Size: 0.00362 s, Pressure Iterations: 5
 Time Step:  15800, Simulation Time:     48.17 s, Step Size: 0.00346 s, Pressure Iterations: 5
 Time Step:  15900, Simulation Time:     48.53 s, Step Size: 0.00338 s, Pressure Iterations: 4
 Time Step:  16000, Simulation Time:     48.90 s, Step Size: 0.00327 s, Pressure Iterations: 5
 Time Step:  16100, Simulation Time:     49.24 s, Step Size: 0.00373 s, Pressure Iterations: 4
 Time Step:  16200, Simulation Time:     49.60 s, Step Size: 0.00337 s, Pressure Iterations: 4
 Time Step:  16300, Simulation Time:     49.98 s, Step Size: 0.00359 s, Pressure Iterations: 5
 Time Step:  16400, Simulation Time:     50.34 s, Step Size: 0.00359 s, Pressure Iterations: 5
 Time Step:  16500, Simulation Time:     50.72 s, Step Size: 0.00391 s, Pressure Iterations: 4
 Time Step:  16600, Simulation Time:     51.08 s, Step Size: 0.00341 s, Pressure Iterations: 5
 Time Step:  16700, Simulation Time:     51.44 s, Step Size: 0.00402 s, Pressure Iterations: 4
 Time Step:  16800, Simulation Time:     51.80 s, Step Size: 0.00385 s, Pressure Iterations: 4
 Time Step:  16900, Simulation Time:     52.19 s, Step Size: 0.00330 s, Pressure Iterations: 5
 Time Step:  17000, Simulation Time:     52.57 s, Step Size: 0.00344 s, Pressure Iterations: 5
 Time Step:  17100, Simulation Time:     52.94 s, Step Size: 0.00378 s, Pressure Iterations: 5
 Time Step:  17200, Simulation Time:     53.33 s, Step Size: 0.00404 s, Pressure Iterations: 5
 Time Step:  17300, Simulation Time:     53.72 s, Step Size: 0.00353 s, Pressure Iterations: 4
 Time Step:  17400, Simulation Time:     54.08 s, Step Size: 0.00310 s, Pressure Iterations: 4
 Time Step:  17500, Simulation Time:     54.43 s, Step Size: 0.00367 s, Pressure Iterations: 4
 Time Step:  17600, Simulation Time:     54.80 s, Step Size: 0.00328 s, Pressure Iterations: 4
 Time Step:  17700, Simulation Time:     55.16 s, Step Size: 0.00390 s, Pressure Iterations: 5
 Time Step:  17800, Simulation Time:     55.54 s, Step Size: 0.00383 s, Pressure Iterations: 5
 Time Step:  17900, Simulation Time:     55.92 s, Step Size: 0.00344 s, Pressure Iterations: 4
 Time Step:  18000, Simulation Time:     56.29 s, Step Size: 0.00378 s, Pressure Iterations: 5
 Time Step:  18100, Simulation Time:     56.65 s, Step Size: 0.00374 s, Pressure Iterations: 5
 Time Step:  18200, Simulation Time:     57.05 s, Step Size: 0.00381 s, Pressure Iterations: 4
 Time Step:  18300, Simulation Time:     57.40 s, Step Size: 0.00329 s, Pressure Iterations: 5
 Time Step:  18400, Simulation Time:     57.78 s, Step Size: 0.00398 s, Pressure Iterations: 5
 Time Step:  18500, Simulation Time:     58.17 s, Step Size: 0.00383 s, Pressure Iterations: 4
 Time Step:  18600, Simulation Time:     58.57 s, Step Size: 0.00378 s, Pressure Iterations: 5
 Time Step:  18700, Simulation Time:     58.96 s, Step Size: 0.00416 s, Pressure Iterations: 5
 Time Step:  18800, Simulation Time:     59.34 s, Step Size: 0.00328 s, Pressure Iterations: 4
 Time Step:  18900, Simulation Time:     59.69 s, Step Size: 0.00348 s, Pressure Iterations: 5
 Time Step:  18984, Simulation Time:     60.00 s, Step Size: 0.00016 s, Pressure Iterations: 1


 Time Stepping Wall Clock Time (s):    16892.847
 Total Elapsed Wall Clock Time (s):    16933.219

STOP: FDS completed successfully (CHID: NIST_Methanol_1m_GEOM_Predicted_5cm_cat)
