
 Fire Dynamics Simulator

 Current Date     : August 17, 2023  14:53:37
 Revision         : FDS-6.8.0-564-g879930a-master
 Revision Date    : Wed Aug 16 13:01:02 2023 -0400
 Compiler         : ifort version 2021.7.1
 Compilation Date : Aug 16, 2023 16:23:58

 MPI Enabled;    Number of MPI Processes:      16
 OpenMP Disabled

 MPI version: 3.1
 MPI library version: Intel(R) MPI Library 2021.7 for Linux* OS


 Job TITLE        : (Concatenated) NIST Methanol Pool, 1 m pan, 10 cm resolution
 Job ID string    : NIST_Methanol_1m_GEOM_Predicted_10cm_cat


 Grid Dimensions, Mesh     1

   Cells in the X Direction            20
   Cells in the Y Direction            20
   Cells in the Z Direction            20
   Number of Grid Cells              8000


 Physical Dimensions, Mesh     1

   Length (m)                       2.000
   Width  (m)                       2.000
   Height (m)                       2.000
   Initial Time Step (s)            0.080

 Grid Dimensions, Mesh     2

   Cells in the X Direction            20
   Cells in the Y Direction            20
   Cells in the Z Direction            20
   Number of Grid Cells              8000


 Physical Dimensions, Mesh     2

   Length (m)                       2.000
   Width  (m)                       2.000
   Height (m)                       2.000
   Initial Time Step (s)            0.080

 Grid Dimensions, Mesh     3

   Cells in the X Direction            20
   Cells in the Y Direction            20
   Cells in the Z Direction            20
   Number of Grid Cells              8000


 Physical Dimensions, Mesh     3

   Length (m)                       2.000
   Width  (m)                       2.000
   Height (m)                       2.000
   Initial Time Step (s)            0.080

 Grid Dimensions, Mesh     4

   Cells in the X Direction            20
   Cells in the Y Direction            20
   Cells in the Z Direction            20
   Number of Grid Cells              8000


 Physical Dimensions, Mesh     4

   Length (m)                       2.000
   Width  (m)                       2.000
   Height (m)                       2.000
   Initial Time Step (s)            0.080

 Grid Dimensions, Mesh     5

   Cells in the X Direction            20
   Cells in the Y Direction            20
   Cells in the Z Direction            20
   Number of Grid Cells              8000


 Physical Dimensions, Mesh     5

   Length (m)                       2.000
   Width  (m)                       2.000
   Height (m)                       2.000
   Initial Time Step (s)            0.080

 Grid Dimensions, Mesh     6

   Cells in the X Direction            20
   Cells in the Y Direction            20
   Cells in the Z Direction            20
   Number of Grid Cells              8000


 Physical Dimensions, Mesh     6

   Length (m)                       2.000
   Width  (m)                       2.000
   Height (m)                       2.000
   Initial Time Step (s)            0.080

 Grid Dimensions, Mesh     7

   Cells in the X Direction            20
   Cells in the Y Direction            20
   Cells in the Z Direction            20
   Number of Grid Cells              8000


 Physical Dimensions, Mesh     7

   Length (m)                       2.000
   Width  (m)                       2.000
   Height (m)                       2.000
   Initial Time Step (s)            0.080

 Grid Dimensions, Mesh     8

   Cells in the X Direction            20
   Cells in the Y Direction            20
   Cells in the Z Direction            20
   Number of Grid Cells              8000


 Physical Dimensions, Mesh     8

   Length (m)                       2.000
   Width  (m)                       2.000
   Height (m)                       2.000
   Initial Time Step (s)            0.080

 Grid Dimensions, Mesh     9

   Cells in the X Direction            20
   Cells in the Y Direction            20
   Cells in the Z Direction            20
   Number of Grid Cells              8000


 Physical Dimensions, Mesh     9

   Length (m)                       2.000
   Width  (m)                       2.000
   Height (m)                       2.000
   Initial Time Step (s)            0.080

 Grid Dimensions, Mesh    10

   Cells in the X Direction            20
   Cells in the Y Direction            20
   Cells in the Z Direction            20
   Number of Grid Cells              8000


 Physical Dimensions, Mesh    10

   Length (m)                       2.000
   Width  (m)                       2.000
   Height (m)                       2.000
   Initial Time Step (s)            0.080

 Grid Dimensions, Mesh    11

   Cells in the X Direction            20
   Cells in the Y Direction            20
   Cells in the Z Direction            20
   Number of Grid Cells              8000


 Physical Dimensions, Mesh    11

   Length (m)                       2.000
   Width  (m)                       2.000
   Height (m)                       2.000
   Initial Time Step (s)            0.080

 Grid Dimensions, Mesh    12

   Cells in the X Direction            20
   Cells in the Y Direction            20
   Cells in the Z Direction            20
   Number of Grid Cells              8000


 Physical Dimensions, Mesh    12

   Length (m)                       2.000
   Width  (m)                       2.000
   Height (m)                       2.000
   Initial Time Step (s)            0.080

 Grid Dimensions, Mesh    13

   Cells in the X Direction            20
   Cells in the Y Direction            20
   Cells in the Z Direction            20
   Number of Grid Cells              8000


 Physical Dimensions, Mesh    13

   Length (m)                       2.000
   Width  (m)                       2.000
   Height (m)                       2.000
   Initial Time Step (s)            0.080

 Grid Dimensions, Mesh    14

   Cells in the X Direction            20
   Cells in the Y Direction            20
   Cells in the Z Direction            20
   Number of Grid Cells              8000


 Physical Dimensions, Mesh    14

   Length (m)                       2.000
   Width  (m)                       2.000
   Height (m)                       2.000
   Initial Time Step (s)            0.080

 Grid Dimensions, Mesh    15

   Cells in the X Direction            20
   Cells in the Y Direction            20
   Cells in the Z Direction            20
   Number of Grid Cells              8000


 Physical Dimensions, Mesh    15

   Length (m)                       2.000
   Width  (m)                       2.000
   Height (m)                       2.000
   Initial Time Step (s)            0.080

 Grid Dimensions, Mesh    16

   Cells in the X Direction            20
   Cells in the Y Direction            20
   Cells in the Z Direction            20
   Number of Grid Cells              8000


 Physical Dimensions, Mesh    16

   Length (m)                       2.000
   Width  (m)                       2.000
   Height (m)                       2.000
   Initial Time Step (s)            0.080

 Total Number of Grid Cells        128000


 Maximum Cell Aspect Ratio          1.000
 CFL Velocity Norm                      1


 Miscellaneous Parameters

   Simulation Start Time (s)          0.0
   Simulation End Time (s)           60.0
   Background Pressure (Pa)     101325.00
   Ambient Temperature (C)          25.00

   3D Cartesian
   LES Calculation
   Eddy Viscosity Model:  Deardorff (C_DEARDORFF = 0.10)
   Surface INERT Eddy Viscosity Model:  WALE (C_WALE = 0.60)
   Surface PAN Eddy Viscosity Model:  WALE (C_WALE = 0.60)
   Surface POOL Eddy Viscosity Model:  WALE (C_WALE = 0.60)
   Turbulent Prandtl Number:         0.50
   Turbulent Schmidt Number:         0.50


 Pressure solver information

   Solver:                          ULMAT
   Velocity tolerance (m/s):    5.000E-02
   Press eqn res tol (1/s^2):   2.000E+03
   Max pressure iterations:            10


 Background Stratification

      Z (m)     P_0 (Pa)    TMP_0 (C)
   ------------------------------------
        1.45    101308.30     25.00
        1.35    101309.45     25.00
        1.25    101310.60     25.00
        1.15    101311.75     25.00
        1.05    101312.90     25.00
        0.95    101314.05     25.00
        0.85    101315.20     25.00
        0.75    101316.35     25.00
        0.65    101317.50     25.00
        0.55    101318.66     25.00
        0.45    101319.81     25.00
        0.35    101320.96     25.00
        0.25    101322.11     25.00
        0.15    101323.26     25.00
        0.05    101324.41     25.00
       -0.05    101325.56     25.00
       -0.15    101326.71     25.00
       -0.25    101327.86     25.00
       -0.35    101329.01     25.00
       -0.45    101330.18     25.00


 Mass Fraction Transformation Matrix to Convert Species Mixtures (Columns) to Primitive Species (Rows)

                         AIR       METHANOL  INTERMED  PRODUCTS
   NITROGEN              0.760861  0.000000  0.520553  0.659393
   OXYGEN                0.230510  0.000000  0.000000  0.000000
   CARBON DIOXIDE        0.000590  0.000000  0.000404  0.183680
   WATER VAPOR           0.008039  0.000000  0.183077  0.156927
   CARBON MONOXIDE       0.000000  0.000000  0.276096  0.000000
   SOOT                  0.000000  0.000000  0.000000  0.000000
   HYDROGEN              0.000000  0.000000  0.019871  0.000000
   HYDROGEN CYANIDE      0.000000  0.000000  0.000000  0.000000
   METHANOL              0.000000  1.000000  0.000000  0.000000


 Primitive Species Information

   NITROGEN
   Gas Species
   Molecular Weight (g/mol)                28.01340
   Ambient Density (kg/m^3)                1.145
           Enthalpy of Formation (J/kg)  0.000E+00

   OXYGEN
   Gas Species
   Molecular Weight (g/mol)                31.99880
   Ambient Density (kg/m^3)                1.308
           Enthalpy of Formation (J/kg)  0.000E+00

   CARBON DIOXIDE
   Gas Species
   Molecular Weight (g/mol)                44.00950
   Ambient Density (kg/m^3)                1.799
           Enthalpy of Formation (J/kg) -8.941E+06

   WATER VAPOR
   Gas Species
   Molecular Weight (g/mol)                18.01528
   Ambient Density (kg/m^3)                0.736
           Enthalpy of Formation (J/kg) -1.342E+07

   CARBON MONOXIDE
   Gas Species
   Molecular Weight (g/mol)                28.01010
   Ambient Density (kg/m^3)                1.145
           Enthalpy of Formation (J/kg) -3.946E+06

   SOOT
   Gas Species
   Molecular Weight (g/mol)                12.01070
   Ambient Density (kg/m^3)                0.491
           Enthalpy of Formation (J/kg)  0.000E+00

   HYDROGEN
   Gas Species
   Molecular Weight (g/mol)                 2.01588
   Ambient Density (kg/m^3)                0.082
           Enthalpy of Formation (J/kg)  0.000E+00

   HYDROGEN CYANIDE
   Gas Species
   Molecular Weight (g/mol)                27.02534
   Ambient Density (kg/m^3)                1.105
           Enthalpy of Formation (J/kg)  4.924E+06

   METHANOL
   Gas Species
   Molecular Weight (g/mol)                32.04186
   Ambient Density (kg/m^3)                1.310
           Enthalpy of Formation (J/kg) -6.271E+06


 Tracked (Lumped) Species Information

   AIR
   Molecular Weight (g/mol)            28.71586
   Ambient Density (kg/m^3)            1.174
   Initial Mass Fraction               1.000
   Enthalpy of Formation (J/kg)     -1.132E+05

   Sub Species                    Mass Fraction     Mole Fraction
   NITROGEN                       7.608605E-01      7.799397E-01
   OXYGEN                         2.305098E-01      2.068605E-01
   CARBON DIOXIDE                 5.902165E-04      3.851117E-04
   WATER VAPOR                    8.039473E-03      1.281470E-02
 
     Viscosity (kg/m/s) Ambient,  298 K:  1.816E-05
                                  500 K:  2.610E-05
                                 1000 K:  4.124E-05
                                 1500 K:  5.371E-05
                                 2000 K:  6.476E-05
   Therm. Cond. (W/m/K) Ambient,  298 K:  2.587E-02
                                  500 K:  3.813E-02
                                 1000 K:  6.690E-02
                                 1500 K:  9.261E-02
                                 2000 K:  1.155E-01
        Enthalpy (J/kg) Ambient,  298 K: -1.132E+05
                                  500 K:  9.439E+04
                                 1000 K:  6.454E+05
                                 1500 K:  1.245E+06
                                 2000 K:  1.872E+06
    Spec. Heat (J/kg/K) Ambient,  298 K:  1.018E+03
                                  500 K:  1.044E+03
                                 1000 K:  1.158E+03
                                 1500 K:  1.232E+03
                                 2000 K:  1.273E+03
   Diff. Coeff. (m^2/s) Ambient,  298 K:  2.050E-05
                                  500 K:  4.964E-05
                                 1000 K:  1.582E-04
                                 1500 K:  3.098E-04
                                 2000 K:  4.989E-04
 Gibbs Energy Amb. (kJ/mol),  298 K: -6.020E+01
                                  500 K: -1.012E+02
                                 1000 K: -2.122E+02
                                 1500 K: -3.317E+02
                                 2000 K: -4.573E+02

   METHANOL
   Molecular Weight (g/mol)            32.04186
   Ambient Density (kg/m^3)            1.310
   Initial Mass Fraction               0.000
   Enthalpy of Formation (J/kg)     -6.271E+06

   Sub Species                    Mass Fraction     Mole Fraction
   METHANOL                       1.000000E+00      1.000000E+00
 
     Viscosity (kg/m/s) Ambient,  298 K:  9.670E-06
                                  500 K:  1.644E-05
                                 1000 K:  3.130E-05
                                 1500 K:  4.324E-05
                                 2000 K:  5.347E-05
   Therm. Cond. (W/m/K) Ambient,  298 K:  1.399E-02
                                  500 K:  3.224E-02
                                 1000 K:  9.206E-02
                                 1500 K:  1.497E-01
                                 2000 K:  2.000E-01
        Enthalpy (J/kg) Ambient,  298 K: -6.271E+06
                                  500 K: -5.946E+06
                                 1000 K: -4.758E+06
                                 1500 K: -3.224E+06
                                 2000 K: -1.507E+06
    Spec. Heat (J/kg/K) Ambient,  298 K:  1.374E+03
                                  500 K:  1.863E+03
                                 1000 K:  2.794E+03
                                 1500 K:  3.289E+03
                                 2000 K:  3.553E+03
   Diff. Coeff. (m^2/s) Ambient,  298 K:  1.557E-05
                                  500 K:  4.034E-05
                                 1000 K:  1.345E-04
                                 1500 K:  2.667E-04
                                 2000 K:  4.310E-04
 Gibbs Energy Amb. (kJ/mol),  298 K: -2.724E+02
                                  500 K: -3.236E+02
                                 1000 K: -4.702E+02
                                 1500 K: -6.394E+02
                                 2000 K: -8.262E+02

   INTERMEDIATE PRODUCTS
   Molecular Weight (g/mol)            20.63226
   Ambient Density (kg/m^3)            0.843
   Initial Mass Fraction               0.000
   Enthalpy of Formation (J/kg)     -3.551E+06

   Sub Species                    Mass Fraction     Mole Fraction
   NITROGEN                       5.205526E-01      3.833942E-01
   CARBON DIOXIDE                 4.038043E-04      1.893090E-04
   WATER VAPOR                    1.830771E-01      2.096717E-01
   CARBON MONOXIDE                2.760959E-01      2.033724E-01
   SOOT                           0.000000E+00      0.000000E+00
   HYDROGEN                       1.987055E-02      2.033724E-01
   HYDROGEN CYANIDE               0.000000E+00      0.000000E+00
 
     Viscosity (kg/m/s) Ambient,  298 K:  1.558E-05
                                  500 K:  2.282E-05
                                 1000 K:  3.759E-05
                                 1500 K:  5.003E-05
                                 2000 K:  6.101E-05
   Therm. Cond. (W/m/K) Ambient,  298 K:  3.500E-02
                                  500 K:  5.194E-02
                                 1000 K:  9.295E-02
                                 1500 K:  1.337E-01
                                 2000 K:  1.717E-01
        Enthalpy (J/kg) Ambient,  298 K: -3.551E+06
                                  500 K: -3.254E+06
                                 1000 K: -2.470E+06
                                 1500 K: -1.606E+06
                                 2000 K: -6.832E+05
    Spec. Heat (J/kg/K) Ambient,  298 K:  1.454E+03
                                  500 K:  1.490E+03
                                 1000 K:  1.652E+03
                                 1500 K:  1.794E+03
                                 2000 K:  1.890E+03
   Diff. Coeff. (m^2/s) Ambient,  298 K:  3.176E-05
                                  500 K:  7.771E-05
                                 1000 K:  2.498E-04
                                 1500 K:  4.907E-04
                                 2000 K:  7.912E-04
 Gibbs Energy Amb. (kJ/mol),  298 K: -1.320E+02
                                  500 K: -1.724E+02
                                 1000 K: -2.822E+02
                                 1500 K: -4.008E+02
                                 2000 K: -5.256E+02

   PRODUCTS
   Molecular Weight (g/mol)            27.45525
   Ambient Density (kg/m^3)            1.122
   Initial Mass Fraction               0.000
   Enthalpy of Formation (J/kg)     -3.749E+06

   Sub Species                    Mass Fraction     Mole Fraction
   NITROGEN                       6.593931E-01      6.462551E-01
   CARBON DIOXIDE                 1.836798E-01      1.145883E-01
   WATER VAPOR                    1.569271E-01      2.391566E-01
   CARBON MONOXIDE                0.000000E+00      0.000000E+00
   SOOT                           0.000000E+00      0.000000E+00
   HYDROGEN CYANIDE               0.000000E+00      0.000000E+00
 
     Viscosity (kg/m/s) Ambient,  298 K:  1.589E-05
                                  500 K:  2.343E-05
                                 1000 K:  3.872E-05
                                 1500 K:  5.151E-05
                                 2000 K:  6.275E-05
   Therm. Cond. (W/m/K) Ambient,  298 K:  2.335E-02
                                  500 K:  3.599E-02
                                 1000 K:  6.820E-02
                                 1500 K:  9.925E-02
                                 2000 K:  1.274E-01
        Enthalpy (J/kg) Ambient,  298 K: -3.749E+06
                                  500 K: -3.515E+06
                                 1000 K: -2.878E+06
                                 1500 K: -2.167E+06
                                 2000 K: -1.410E+06
    Spec. Heat (J/kg/K) Ambient,  298 K:  1.133E+03
                                  500 K:  1.189E+03
                                 1000 K:  1.356E+03
                                 1500 K:  1.476E+03
                                 2000 K:  1.549E+03
   Diff. Coeff. (m^2/s) Ambient,  298 K:  2.019E-05
                                  500 K:  5.015E-05
                                 1000 K:  1.630E-04
                                 1500 K:  3.211E-04
                                 2000 K:  5.183E-04
 Gibbs Energy Amb. (kJ/mol),  298 K: -1.684E+02
                                  500 K: -2.097E+02
                                 1000 K: -3.223E+02
                                 1500 K: -4.448E+02
                                 2000 K: -5.742E+02


 Gas Phase Reaction Information

   Reaction 1

      Priority:                                                               1

      Fuel                                           Heat of Combustion (kJ/kg)
      METHANOL                                                        4725.7305
      2-step reaction,  Total Heat of Combustion                     21104.3304

      Primitive Species Stoich. Coeff.
      Species ID                                                          Molar
      OXYGEN                                                          -0.500000
      WATER VAPOR                                                      1.000000
      CARBON MONOXIDE                                                  1.000000
      HYDROGEN                                                         1.000000
      METHANOL                                                        -1.000000

      Tracked (Lumped) Species Stoich. Coeff.
      Species ID                                             Molar         Mass
      AIR                                                -2.417088    -2.166190
      METHANOL                                           -1.000000    -1.000000
      INTERMEDIATE PRODUCTS                               4.917088     3.166190

      Reaction Kinetics

      Fast chemistry

      ODE Solver:  EXPLICIT EULER

      Extinction Model:  EXTINCTION 2
      Auto-Ignition Temperature (C):            -273.1
      Critical Flame Temperature (C):           1257.0

      Prescribed Radiative Fraction:             0.210

   Reaction 2

      Priority:                                                               2

      Fuel                                           Heat of Combustion (kJ/kg)
      INTERMEDIATE PRODUCTS                                           5172.9678

      Primitive Species Stoich. Coeff.
      Species ID                                                          Molar
      OXYGEN                                                          -0.203372
      CARBON DIOXIDE                                                   0.203372
      WATER VAPOR                                                      0.203372
      CARBON MONOXIDE                                                 -0.203372
      HYDROGEN                                                        -0.203372

      Tracked (Lumped) Species Stoich. Coeff.
      Species ID                                             Molar         Mass
      AIR                                                -0.983138    -1.368326
      INTERMEDIATE PRODUCTS                              -1.000000    -1.000000
      PRODUCTS                                            1.779766     2.368326

      Reaction Kinetics

      Fast chemistry

      ODE Solver:  EXPLICIT EULER

      Prescribed Radiative Fraction:             0.210


 Material Information

   1 STEEL
     Emissivity:                                  0.800
     Density (kg/m3):                            7800.0
     Specific Heat (kJ/kg/K) Ambient,  298 K:  4.650E-01
                                       350 K:  4.650E-01
                                       500 K:  4.650E-01
                                       800 K:  4.650E-01
     Therm. Cond. (W/m/K) Ambient,     298 K:  5.400E+01
                                       350 K:  5.400E+01
                                       500 K:  5.400E+01
                                       800 K:  5.400E+01
     Enthalpy (kJ/kg) Ambient,         298 K:  1.386E+02
                                       350 K:  1.628E+02
                                       500 K:  2.325E+02
                                       800 K:  3.720E+02

   2 METHANOL LIQUID
     Emissivity:                                  1.000
     Density (kg/m3):                             796.0
     Specific Heat (kJ/kg/K) Ambient,  298 K:  2.480E+00
                                       350 K:  2.480E+00
                                       500 K:  2.480E+00
                                       800 K:  2.480E+00
     Therm. Cond. (W/m/K) Ambient,     298 K:  2.000E-01
                                       350 K:  2.000E-01
                                       500 K:  2.000E-01
                                       800 K:  2.000E-01
     Enthalpy (kJ/kg) Ambient,         298 K: -7.413E+03
                                       350 K: -7.284E+03
                                       500 K: -6.912E+03
                                       800 K: -6.168E+03
     Absorption coefficient (1/m)  1500.00
     Liquid evaporation reaction
        Gaseous Yields:
        AIR                                                         :     0.00
        METHANOL                                                    :     1.00
        INTERMEDIATE PRODUCTS                                       :     0.00
        PRODUCTS                                                    :     0.00
        Boiling temperature (C):    64.65
        H_R (kJ/kg)            :  1.141E+03


 Surface Conditions

   0 INERT (DEFAULT)

   1 PAN
     Material List
          1  STEEL
     Layer  1
        Thickness   (m):  0.00300
        Density (kg/m3):  7800.00
        STEEL, Mass fraction:    1.00
     Reaction products considered from the first  0.50 layers.
     Total surface density    23.400 kg/m2
     Solid Phase Node, Layer, Coordinates(m):
                    0      1       0.0000000
                    1      1       0.0030000
     Exposed Backing

   2 POOL
     Material List
          1  METHANOL LIQUID
     Layer  1
        Thickness   (m):  0.15000
        Density (kg/m3):   796.00
        METHANOL LIQUID, Mass fraction:    1.00
     Reaction products considered from the first  0.50 layers.
     Total surface density   119.400 kg/m2
     Solid Phase Node, Layer, Coordinates(m):
                    0      1       0.0000000
                    1      1       0.0002941
                    2      1       0.0008824
                    3      1       0.0020588
                    4      1       0.0044118
                    5      1       0.0091176
                    6      1       0.0185294
                    7      1       0.0373529
                    8      1       0.0750000
                    9      1       0.1126471
                   10      1       0.1314706
                   11      1       0.1408824
                   12      1       0.1455882
                   13      1       0.1479412
                   14      1       0.1491176
                   15      1       0.1497059
                   16      1       0.1500000
     Exposed Backing

   3 OPEN
     Passive Vent to Atmosphere

   4 MIRROR
     Symmetry Plane

   5 INTERPOLATED

   6 PERIODIC

   7 HVAC

   8 MASSLESS TRACER

   9 DROPLET

  10 MASSLESS TARGET

  11 PERIODIC FLOW ONLY


 Lagrangian Particle Classes

   1 RESERVED TARGET PARTICLE
     SURFace ID: MASSLESS TARGET
     # Reals: 690
     # Integers: 24
     # Logicals: 5


 PROPerty Information

   1 TC
     Smokeview ID                sensor


 Cut-off Density and Temperature

    Minimum Temperature:  -259.1 C
    Maximum Temperature:  2726.8 C
    Minimum Density:  1.174E-01 kg/m3
    Maximum Density:  5.578E+01 kg/m3


 Device Information

   1 ID: MLRPUA
     QUANTITY: BURNING RATE
     Coordinates (X,Y,Z):   -1.000000E-03   -1.000000E-03    4.500000E-02
     SPATIAL STATISTIC: MEAN
     TEMPORAL STATISTIC: TIME AVERAGE
   2 ID: HEAT_FLUX
     QUANTITY: TOTAL HEAT FLUX
     Coordinates (X,Y,Z):   -1.000000E-03   -1.000000E-03    4.500000E-02
     SPATIAL STATISTIC: MEAN
     TEMPORAL STATISTIC: TIME AVERAGE
   3 ID: MLRPUA_ideal
     QUANTITY: TOTAL HEAT FLUX
     Coordinates (X,Y,Z):   -1.000000E-03   -1.000000E-03    4.500000E-02
     SPATIAL STATISTIC: MEAN
     TEMPORAL STATISTIC: TIME AVERAGE
   4 ID: T_SURF_MEAN
     QUANTITY: WALL TEMPERATURE
     Coordinates (X,Y,Z):   -1.000000E-03   -1.000000E-03    4.500000E-02
     SPATIAL STATISTIC: MEAN
     TEMPORAL STATISTIC: TIME AVERAGE
   5 ID: T_SURF_MAX
     QUANTITY: WALL TEMPERATURE
     Coordinates (X,Y,Z):   -1.000000E-03   -1.000000E-03    4.500000E-02
     SPATIAL STATISTIC: MAX
     TEMPORAL STATISTIC: TIME AVERAGE
   6 ID: T_CL
     QUANTITY: THERMOCOUPLE
     Coordinates (X,Y,Z):    1.000000E-03    1.000000E-03    5.000000E-03
     TEMPORAL STATISTIC: RUNNING AVERAGE
  Property ID: TC
   7 ID: T_CL
     QUANTITY: THERMOCOUPLE
     Coordinates (X,Y,Z):    1.000000E-03    1.000000E-03    4.462264E-02
     TEMPORAL STATISTIC: RUNNING AVERAGE
  Property ID: TC
   8 ID: T_CL
     QUANTITY: THERMOCOUPLE
     Coordinates (X,Y,Z):    1.000000E-03    1.000000E-03    8.424528E-02
     TEMPORAL STATISTIC: RUNNING AVERAGE
  Property ID: TC
   9 ID: T_CL
     QUANTITY: THERMOCOUPLE
     Coordinates (X,Y,Z):    1.000000E-03    1.000000E-03    1.238679E-01
     TEMPORAL STATISTIC: RUNNING AVERAGE
  Property ID: TC
  10 ID: T_CL
     QUANTITY: THERMOCOUPLE
     Coordinates (X,Y,Z):    1.000000E-03    1.000000E-03    1.634906E-01
     TEMPORAL STATISTIC: RUNNING AVERAGE
  Property ID: TC
  11 ID: T_CL
     QUANTITY: THERMOCOUPLE
     Coordinates (X,Y,Z):    1.000000E-03    1.000000E-03    2.031132E-01
     TEMPORAL STATISTIC: RUNNING AVERAGE
  Property ID: TC
  12 ID: T_CL
     QUANTITY: THERMOCOUPLE
     Coordinates (X,Y,Z):    1.000000E-03    1.000000E-03    2.427358E-01
     TEMPORAL STATISTIC: RUNNING AVERAGE
  Property ID: TC
  13 ID: T_CL
     QUANTITY: THERMOCOUPLE
     Coordinates (X,Y,Z):    1.000000E-03    1.000000E-03    2.823585E-01
     TEMPORAL STATISTIC: RUNNING AVERAGE
  Property ID: TC
  14 ID: T_CL
     QUANTITY: THERMOCOUPLE
     Coordinates (X,Y,Z):    1.000000E-03    1.000000E-03    3.219811E-01
     TEMPORAL STATISTIC: RUNNING AVERAGE
  Property ID: TC
  15 ID: T_CL
     QUANTITY: THERMOCOUPLE
     Coordinates (X,Y,Z):    1.000000E-03    1.000000E-03    3.616038E-01
     TEMPORAL STATISTIC: RUNNING AVERAGE
  Property ID: TC
  16 ID: T_CL
     QUANTITY: THERMOCOUPLE
     Coordinates (X,Y,Z):    1.000000E-03    1.000000E-03    4.012264E-01
     TEMPORAL STATISTIC: RUNNING AVERAGE
  Property ID: TC
  17 ID: T_CL
     QUANTITY: THERMOCOUPLE
     Coordinates (X,Y,Z):    1.000000E-03    1.000000E-03    4.408491E-01
     TEMPORAL STATISTIC: RUNNING AVERAGE
  Property ID: TC
  18 ID: T_CL
     QUANTITY: THERMOCOUPLE
     Coordinates (X,Y,Z):    1.000000E-03    1.000000E-03    4.804717E-01
     TEMPORAL STATISTIC: RUNNING AVERAGE
  Property ID: TC
  19 ID: T_CL
     QUANTITY: THERMOCOUPLE
     Coordinates (X,Y,Z):    1.000000E-03    1.000000E-03    5.200943E-01
     TEMPORAL STATISTIC: RUNNING AVERAGE
  Property ID: TC
  20 ID: T_CL
     QUANTITY: THERMOCOUPLE
     Coordinates (X,Y,Z):    1.000000E-03    1.000000E-03    5.597170E-01
     TEMPORAL STATISTIC: RUNNING AVERAGE
  Property ID: TC
  21 ID: T_CL
     QUANTITY: THERMOCOUPLE
     Coordinates (X,Y,Z):    1.000000E-03    1.000000E-03    5.993396E-01
     TEMPORAL STATISTIC: RUNNING AVERAGE
  Property ID: TC
  22 ID: T_CL
     QUANTITY: THERMOCOUPLE
     Coordinates (X,Y,Z):    1.000000E-03    1.000000E-03    6.389623E-01
     TEMPORAL STATISTIC: RUNNING AVERAGE
  Property ID: TC
  23 ID: T_CL
     QUANTITY: THERMOCOUPLE
     Coordinates (X,Y,Z):    1.000000E-03    1.000000E-03    6.785849E-01
     TEMPORAL STATISTIC: RUNNING AVERAGE
  Property ID: TC
  24 ID: T_CL
     QUANTITY: THERMOCOUPLE
     Coordinates (X,Y,Z):    1.000000E-03    1.000000E-03    7.182075E-01
     TEMPORAL STATISTIC: RUNNING AVERAGE
  Property ID: TC
  25 ID: T_CL
     QUANTITY: THERMOCOUPLE
     Coordinates (X,Y,Z):    1.000000E-03    1.000000E-03    7.578302E-01
     TEMPORAL STATISTIC: RUNNING AVERAGE
  Property ID: TC
  26 ID: T_CL
     QUANTITY: THERMOCOUPLE
     Coordinates (X,Y,Z):    1.000000E-03    1.000000E-03    7.974528E-01
     TEMPORAL STATISTIC: RUNNING AVERAGE
  Property ID: TC
  27 ID: T_CL
     QUANTITY: THERMOCOUPLE
     Coordinates (X,Y,Z):    1.000000E-03    1.000000E-03    8.370755E-01
     TEMPORAL STATISTIC: RUNNING AVERAGE
  Property ID: TC
  28 ID: T_CL
     QUANTITY: THERMOCOUPLE
     Coordinates (X,Y,Z):    1.000000E-03    1.000000E-03    8.766981E-01
     TEMPORAL STATISTIC: RUNNING AVERAGE
  Property ID: TC
  29 ID: T_CL
     QUANTITY: THERMOCOUPLE
     Coordinates (X,Y,Z):    1.000000E-03    1.000000E-03    9.163208E-01
     TEMPORAL STATISTIC: RUNNING AVERAGE
  Property ID: TC
  30 ID: T_CL
     QUANTITY: THERMOCOUPLE
     Coordinates (X,Y,Z):    1.000000E-03    1.000000E-03    9.559434E-01
     TEMPORAL STATISTIC: RUNNING AVERAGE
  Property ID: TC
  31 ID: T_CL
     QUANTITY: THERMOCOUPLE
     Coordinates (X,Y,Z):    1.000000E-03    1.000000E-03    9.955660E-01
     TEMPORAL STATISTIC: RUNNING AVERAGE
  Property ID: TC
  32 ID: T_CL
     QUANTITY: THERMOCOUPLE
     Coordinates (X,Y,Z):    1.000000E-03    1.000000E-03    1.035189E+00
     TEMPORAL STATISTIC: RUNNING AVERAGE
  Property ID: TC
  33 ID: T_CL
     QUANTITY: THERMOCOUPLE
     Coordinates (X,Y,Z):    1.000000E-03    1.000000E-03    1.074811E+00
     TEMPORAL STATISTIC: RUNNING AVERAGE
  Property ID: TC
  34 ID: T_CL
     QUANTITY: THERMOCOUPLE
     Coordinates (X,Y,Z):    1.000000E-03    1.000000E-03    1.114434E+00
     TEMPORAL STATISTIC: RUNNING AVERAGE
  Property ID: TC
  35 ID: T_CL
     QUANTITY: THERMOCOUPLE
     Coordinates (X,Y,Z):    1.000000E-03    1.000000E-03    1.154057E+00
     TEMPORAL STATISTIC: RUNNING AVERAGE
  Property ID: TC
  36 ID: T_CL
     QUANTITY: THERMOCOUPLE
     Coordinates (X,Y,Z):    1.000000E-03    1.000000E-03    1.193679E+00
     TEMPORAL STATISTIC: RUNNING AVERAGE
  Property ID: TC
  37 ID: T_CL
     QUANTITY: THERMOCOUPLE
     Coordinates (X,Y,Z):    1.000000E-03    1.000000E-03    1.233302E+00
     TEMPORAL STATISTIC: RUNNING AVERAGE
  Property ID: TC
  38 ID: T_CL
     QUANTITY: THERMOCOUPLE
     Coordinates (X,Y,Z):    1.000000E-03    1.000000E-03    1.272925E+00
     TEMPORAL STATISTIC: RUNNING AVERAGE
  Property ID: TC
  39 ID: T_CL
     QUANTITY: THERMOCOUPLE
     Coordinates (X,Y,Z):    1.000000E-03    1.000000E-03    1.312547E+00
     TEMPORAL STATISTIC: RUNNING AVERAGE
  Property ID: TC
  40 ID: T_CL
     QUANTITY: THERMOCOUPLE
     Coordinates (X,Y,Z):    1.000000E-03    1.000000E-03    1.352170E+00
     TEMPORAL STATISTIC: RUNNING AVERAGE
  Property ID: TC
  41 ID: T_CL
     QUANTITY: THERMOCOUPLE
     Coordinates (X,Y,Z):    1.000000E-03    1.000000E-03    1.391792E+00
     TEMPORAL STATISTIC: RUNNING AVERAGE
  Property ID: TC
  42 ID: T_CL
     QUANTITY: THERMOCOUPLE
     Coordinates (X,Y,Z):    1.000000E-03    1.000000E-03    1.431415E+00
     TEMPORAL STATISTIC: RUNNING AVERAGE
  Property ID: TC
  43 ID: T_CL
     QUANTITY: THERMOCOUPLE
     Coordinates (X,Y,Z):    1.000000E-03    1.000000E-03    1.471038E+00
     TEMPORAL STATISTIC: RUNNING AVERAGE
  Property ID: TC
  44 ID: T_CL
     QUANTITY: THERMOCOUPLE
     Coordinates (X,Y,Z):    1.000000E-03    1.000000E-03    1.510660E+00
     TEMPORAL STATISTIC: RUNNING AVERAGE
  Property ID: TC
  45 ID: T_CL
     QUANTITY: THERMOCOUPLE
     Coordinates (X,Y,Z):    1.000000E-03    1.000000E-03    1.550283E+00
     TEMPORAL STATISTIC: RUNNING AVERAGE
  Property ID: TC
  46 ID: T_CL
     QUANTITY: THERMOCOUPLE
     Coordinates (X,Y,Z):    1.000000E-03    1.000000E-03    1.589906E+00
     TEMPORAL STATISTIC: RUNNING AVERAGE
  Property ID: TC
  47 ID: T_CL
     QUANTITY: THERMOCOUPLE
     Coordinates (X,Y,Z):    1.000000E-03    1.000000E-03    1.629528E+00
     TEMPORAL STATISTIC: RUNNING AVERAGE
  Property ID: TC
  48 ID: T_CL
     QUANTITY: THERMOCOUPLE
     Coordinates (X,Y,Z):    1.000000E-03    1.000000E-03    1.669151E+00
     TEMPORAL STATISTIC: RUNNING AVERAGE
  Property ID: TC
  49 ID: T_CL
     QUANTITY: THERMOCOUPLE
     Coordinates (X,Y,Z):    1.000000E-03    1.000000E-03    1.708774E+00
     TEMPORAL STATISTIC: RUNNING AVERAGE
  Property ID: TC
  50 ID: T_CL
     QUANTITY: THERMOCOUPLE
     Coordinates (X,Y,Z):    1.000000E-03    1.000000E-03    1.748396E+00
     TEMPORAL STATISTIC: RUNNING AVERAGE
  Property ID: TC
  51 ID: T_CL
     QUANTITY: THERMOCOUPLE
     Coordinates (X,Y,Z):    1.000000E-03    1.000000E-03    1.788019E+00
     TEMPORAL STATISTIC: RUNNING AVERAGE
  Property ID: TC
  52 ID: T_CL
     QUANTITY: THERMOCOUPLE
     Coordinates (X,Y,Z):    1.000000E-03    1.000000E-03    1.827642E+00
     TEMPORAL STATISTIC: RUNNING AVERAGE
  Property ID: TC
  53 ID: T_CL
     QUANTITY: THERMOCOUPLE
     Coordinates (X,Y,Z):    1.000000E-03    1.000000E-03    1.867264E+00
     TEMPORAL STATISTIC: RUNNING AVERAGE
  Property ID: TC
  54 ID: T_CL
     QUANTITY: THERMOCOUPLE
     Coordinates (X,Y,Z):    1.000000E-03    1.000000E-03    1.906887E+00
     TEMPORAL STATISTIC: RUNNING AVERAGE
  Property ID: TC
  55 ID: T_CL
     QUANTITY: THERMOCOUPLE
     Coordinates (X,Y,Z):    1.000000E-03    1.000000E-03    1.946509E+00
     TEMPORAL STATISTIC: RUNNING AVERAGE
  Property ID: TC
  56 ID: T_CL
     QUANTITY: THERMOCOUPLE
     Coordinates (X,Y,Z):    1.000000E-03    1.000000E-03    1.986132E+00
     TEMPORAL STATISTIC: RUNNING AVERAGE
  Property ID: TC
  57 ID: T_CL
     QUANTITY: THERMOCOUPLE
     Coordinates (X,Y,Z):    1.000000E-03    1.000000E-03    2.025755E+00
     TEMPORAL STATISTIC: RUNNING AVERAGE
  Property ID: TC
  58 ID: T_CL
     QUANTITY: THERMOCOUPLE
     Coordinates (X,Y,Z):    1.000000E-03    1.000000E-03    2.065377E+00
     TEMPORAL STATISTIC: RUNNING AVERAGE
  Property ID: TC
  59 ID: T_CL
     QUANTITY: THERMOCOUPLE
     Coordinates (X,Y,Z):    1.000000E-03    1.000000E-03    2.105000E+00
     TEMPORAL STATISTIC: RUNNING AVERAGE
  Property ID: TC
  60 ID: T_CL_RMS
     QUANTITY: THERMOCOUPLE
     Coordinates (X,Y,Z):    1.000000E-03    1.000000E-03    5.000000E-03
     TEMPORAL STATISTIC: RMS
  Property ID: TC
  61 ID: T_CL_RMS
     QUANTITY: THERMOCOUPLE
     Coordinates (X,Y,Z):    1.000000E-03    1.000000E-03    4.462264E-02
     TEMPORAL STATISTIC: RMS
  Property ID: TC
  62 ID: T_CL_RMS
     QUANTITY: THERMOCOUPLE
     Coordinates (X,Y,Z):    1.000000E-03    1.000000E-03    8.424528E-02
     TEMPORAL STATISTIC: RMS
  Property ID: TC
  63 ID: T_CL_RMS
     QUANTITY: THERMOCOUPLE
     Coordinates (X,Y,Z):    1.000000E-03    1.000000E-03    1.238679E-01
     TEMPORAL STATISTIC: RMS
  Property ID: TC
  64 ID: T_CL_RMS
     QUANTITY: THERMOCOUPLE
     Coordinates (X,Y,Z):    1.000000E-03    1.000000E-03    1.634906E-01
     TEMPORAL STATISTIC: RMS
  Property ID: TC
  65 ID: T_CL_RMS
     QUANTITY: THERMOCOUPLE
     Coordinates (X,Y,Z):    1.000000E-03    1.000000E-03    2.031132E-01
     TEMPORAL STATISTIC: RMS
  Property ID: TC
  66 ID: T_CL_RMS
     QUANTITY: THERMOCOUPLE
     Coordinates (X,Y,Z):    1.000000E-03    1.000000E-03    2.427358E-01
     TEMPORAL STATISTIC: RMS
  Property ID: TC
  67 ID: T_CL_RMS
     QUANTITY: THERMOCOUPLE
     Coordinates (X,Y,Z):    1.000000E-03    1.000000E-03    2.823585E-01
     TEMPORAL STATISTIC: RMS
  Property ID: TC
  68 ID: T_CL_RMS
     QUANTITY: THERMOCOUPLE
     Coordinates (X,Y,Z):    1.000000E-03    1.000000E-03    3.219811E-01
     TEMPORAL STATISTIC: RMS
  Property ID: TC
  69 ID: T_CL_RMS
     QUANTITY: THERMOCOUPLE
     Coordinates (X,Y,Z):    1.000000E-03    1.000000E-03    3.616038E-01
     TEMPORAL STATISTIC: RMS
  Property ID: TC
  70 ID: T_CL_RMS
     QUANTITY: THERMOCOUPLE
     Coordinates (X,Y,Z):    1.000000E-03    1.000000E-03    4.012264E-01
     TEMPORAL STATISTIC: RMS
  Property ID: TC
  71 ID: T_CL_RMS
     QUANTITY: THERMOCOUPLE
     Coordinates (X,Y,Z):    1.000000E-03    1.000000E-03    4.408491E-01
     TEMPORAL STATISTIC: RMS
  Property ID: TC
  72 ID: T_CL_RMS
     QUANTITY: THERMOCOUPLE
     Coordinates (X,Y,Z):    1.000000E-03    1.000000E-03    4.804717E-01
     TEMPORAL STATISTIC: RMS
  Property ID: TC
  73 ID: T_CL_RMS
     QUANTITY: THERMOCOUPLE
     Coordinates (X,Y,Z):    1.000000E-03    1.000000E-03    5.200943E-01
     TEMPORAL STATISTIC: RMS
  Property ID: TC
  74 ID: T_CL_RMS
     QUANTITY: THERMOCOUPLE
     Coordinates (X,Y,Z):    1.000000E-03    1.000000E-03    5.597170E-01
     TEMPORAL STATISTIC: RMS
  Property ID: TC
  75 ID: T_CL_RMS
     QUANTITY: THERMOCOUPLE
     Coordinates (X,Y,Z):    1.000000E-03    1.000000E-03    5.993396E-01
     TEMPORAL STATISTIC: RMS
  Property ID: TC
  76 ID: T_CL_RMS
     QUANTITY: THERMOCOUPLE
     Coordinates (X,Y,Z):    1.000000E-03    1.000000E-03    6.389623E-01
     TEMPORAL STATISTIC: RMS
  Property ID: TC
  77 ID: T_CL_RMS
     QUANTITY: THERMOCOUPLE
     Coordinates (X,Y,Z):    1.000000E-03    1.000000E-03    6.785849E-01
     TEMPORAL STATISTIC: RMS
  Property ID: TC
  78 ID: T_CL_RMS
     QUANTITY: THERMOCOUPLE
     Coordinates (X,Y,Z):    1.000000E-03    1.000000E-03    7.182075E-01
     TEMPORAL STATISTIC: RMS
  Property ID: TC
  79 ID: T_CL_RMS
     QUANTITY: THERMOCOUPLE
     Coordinates (X,Y,Z):    1.000000E-03    1.000000E-03    7.578302E-01
     TEMPORAL STATISTIC: RMS
  Property ID: TC
  80 ID: T_CL_RMS
     QUANTITY: THERMOCOUPLE
     Coordinates (X,Y,Z):    1.000000E-03    1.000000E-03    7.974528E-01
     TEMPORAL STATISTIC: RMS
  Property ID: TC
  81 ID: T_CL_RMS
     QUANTITY: THERMOCOUPLE
     Coordinates (X,Y,Z):    1.000000E-03    1.000000E-03    8.370755E-01
     TEMPORAL STATISTIC: RMS
  Property ID: TC
  82 ID: T_CL_RMS
     QUANTITY: THERMOCOUPLE
     Coordinates (X,Y,Z):    1.000000E-03    1.000000E-03    8.766981E-01
     TEMPORAL STATISTIC: RMS
  Property ID: TC
  83 ID: T_CL_RMS
     QUANTITY: THERMOCOUPLE
     Coordinates (X,Y,Z):    1.000000E-03    1.000000E-03    9.163208E-01
     TEMPORAL STATISTIC: RMS
  Property ID: TC
  84 ID: T_CL_RMS
     QUANTITY: THERMOCOUPLE
     Coordinates (X,Y,Z):    1.000000E-03    1.000000E-03    9.559434E-01
     TEMPORAL STATISTIC: RMS
  Property ID: TC
  85 ID: T_CL_RMS
     QUANTITY: THERMOCOUPLE
     Coordinates (X,Y,Z):    1.000000E-03    1.000000E-03    9.955660E-01
     TEMPORAL STATISTIC: RMS
  Property ID: TC
  86 ID: T_CL_RMS
     QUANTITY: THERMOCOUPLE
     Coordinates (X,Y,Z):    1.000000E-03    1.000000E-03    1.035189E+00
     TEMPORAL STATISTIC: RMS
  Property ID: TC
  87 ID: T_CL_RMS
     QUANTITY: THERMOCOUPLE
     Coordinates (X,Y,Z):    1.000000E-03    1.000000E-03    1.074811E+00
     TEMPORAL STATISTIC: RMS
  Property ID: TC
  88 ID: T_CL_RMS
     QUANTITY: THERMOCOUPLE
     Coordinates (X,Y,Z):    1.000000E-03    1.000000E-03    1.114434E+00
     TEMPORAL STATISTIC: RMS
  Property ID: TC
  89 ID: T_CL_RMS
     QUANTITY: THERMOCOUPLE
     Coordinates (X,Y,Z):    1.000000E-03    1.000000E-03    1.154057E+00
     TEMPORAL STATISTIC: RMS
  Property ID: TC
  90 ID: T_CL_RMS
     QUANTITY: THERMOCOUPLE
     Coordinates (X,Y,Z):    1.000000E-03    1.000000E-03    1.193679E+00
     TEMPORAL STATISTIC: RMS
  Property ID: TC
  91 ID: T_CL_RMS
     QUANTITY: THERMOCOUPLE
     Coordinates (X,Y,Z):    1.000000E-03    1.000000E-03    1.233302E+00
     TEMPORAL STATISTIC: RMS
  Property ID: TC
  92 ID: T_CL_RMS
     QUANTITY: THERMOCOUPLE
     Coordinates (X,Y,Z):    1.000000E-03    1.000000E-03    1.272925E+00
     TEMPORAL STATISTIC: RMS
  Property ID: TC
  93 ID: T_CL_RMS
     QUANTITY: THERMOCOUPLE
     Coordinates (X,Y,Z):    1.000000E-03    1.000000E-03    1.312547E+00
     TEMPORAL STATISTIC: RMS
  Property ID: TC
  94 ID: T_CL_RMS
     QUANTITY: THERMOCOUPLE
     Coordinates (X,Y,Z):    1.000000E-03    1.000000E-03    1.352170E+00
     TEMPORAL STATISTIC: RMS
  Property ID: TC
  95 ID: T_CL_RMS
     QUANTITY: THERMOCOUPLE
     Coordinates (X,Y,Z):    1.000000E-03    1.000000E-03    1.391792E+00
     TEMPORAL STATISTIC: RMS
  Property ID: TC
  96 ID: T_CL_RMS
     QUANTITY: THERMOCOUPLE
     Coordinates (X,Y,Z):    1.000000E-03    1.000000E-03    1.431415E+00
     TEMPORAL STATISTIC: RMS
  Property ID: TC
  97 ID: T_CL_RMS
     QUANTITY: THERMOCOUPLE
     Coordinates (X,Y,Z):    1.000000E-03    1.000000E-03    1.471038E+00
     TEMPORAL STATISTIC: RMS
  Property ID: TC
  98 ID: T_CL_RMS
     QUANTITY: THERMOCOUPLE
     Coordinates (X,Y,Z):    1.000000E-03    1.000000E-03    1.510660E+00
     TEMPORAL STATISTIC: RMS
  Property ID: TC
  99 ID: T_CL_RMS
     QUANTITY: THERMOCOUPLE
     Coordinates (X,Y,Z):    1.000000E-03    1.000000E-03    1.550283E+00
     TEMPORAL STATISTIC: RMS
  Property ID: TC
 100 ID: T_CL_RMS
     QUANTITY: THERMOCOUPLE
     Coordinates (X,Y,Z):    1.000000E-03    1.000000E-03    1.589906E+00
     TEMPORAL STATISTIC: RMS
  Property ID: TC
 101 ID: T_CL_RMS
     QUANTITY: THERMOCOUPLE
     Coordinates (X,Y,Z):    1.000000E-03    1.000000E-03    1.629528E+00
     TEMPORAL STATISTIC: RMS
  Property ID: TC
 102 ID: T_CL_RMS
     QUANTITY: THERMOCOUPLE
     Coordinates (X,Y,Z):    1.000000E-03    1.000000E-03    1.669151E+00
     TEMPORAL STATISTIC: RMS
  Property ID: TC
 103 ID: T_CL_RMS
     QUANTITY: THERMOCOUPLE
     Coordinates (X,Y,Z):    1.000000E-03    1.000000E-03    1.708774E+00
     TEMPORAL STATISTIC: RMS
  Property ID: TC
 104 ID: T_CL_RMS
     QUANTITY: THERMOCOUPLE
     Coordinates (X,Y,Z):    1.000000E-03    1.000000E-03    1.748396E+00
     TEMPORAL STATISTIC: RMS
  Property ID: TC
 105 ID: T_CL_RMS
     QUANTITY: THERMOCOUPLE
     Coordinates (X,Y,Z):    1.000000E-03    1.000000E-03    1.788019E+00
     TEMPORAL STATISTIC: RMS
  Property ID: TC
 106 ID: T_CL_RMS
     QUANTITY: THERMOCOUPLE
     Coordinates (X,Y,Z):    1.000000E-03    1.000000E-03    1.827642E+00
     TEMPORAL STATISTIC: RMS
  Property ID: TC
 107 ID: T_CL_RMS
     QUANTITY: THERMOCOUPLE
     Coordinates (X,Y,Z):    1.000000E-03    1.000000E-03    1.867264E+00
     TEMPORAL STATISTIC: RMS
  Property ID: TC
 108 ID: T_CL_RMS
     QUANTITY: THERMOCOUPLE
     Coordinates (X,Y,Z):    1.000000E-03    1.000000E-03    1.906887E+00
     TEMPORAL STATISTIC: RMS
  Property ID: TC
 109 ID: T_CL_RMS
     QUANTITY: THERMOCOUPLE
     Coordinates (X,Y,Z):    1.000000E-03    1.000000E-03    1.946509E+00
     TEMPORAL STATISTIC: RMS
  Property ID: TC
 110 ID: T_CL_RMS
     QUANTITY: THERMOCOUPLE
     Coordinates (X,Y,Z):    1.000000E-03    1.000000E-03    1.986132E+00
     TEMPORAL STATISTIC: RMS
  Property ID: TC
 111 ID: T_CL_RMS
     QUANTITY: THERMOCOUPLE
     Coordinates (X,Y,Z):    1.000000E-03    1.000000E-03    2.025755E+00
     TEMPORAL STATISTIC: RMS
  Property ID: TC
 112 ID: T_CL_RMS
     QUANTITY: THERMOCOUPLE
     Coordinates (X,Y,Z):    1.000000E-03    1.000000E-03    2.065377E+00
     TEMPORAL STATISTIC: RMS
  Property ID: TC
 113 ID: T_CL_RMS
     QUANTITY: THERMOCOUPLE
     Coordinates (X,Y,Z):    1.000000E-03    1.000000E-03    2.105000E+00
     TEMPORAL STATISTIC: RMS
  Property ID: TC
 114 ID: T_20
     QUANTITY: THERMOCOUPLE
     Coordinates (X,Y,Z):   -9.500000E-02    1.000000E-03    2.000000E-01
     TEMPORAL STATISTIC: RUNNING AVERAGE
  Property ID: TC
 115 ID: T_20
     QUANTITY: THERMOCOUPLE
     Coordinates (X,Y,Z):   -5.285714E-02    1.000000E-03    2.000000E-01
     TEMPORAL STATISTIC: RUNNING AVERAGE
  Property ID: TC
 116 ID: T_20
     QUANTITY: THERMOCOUPLE
     Coordinates (X,Y,Z):   -1.071429E-02    1.000000E-03    2.000000E-01
     TEMPORAL STATISTIC: RUNNING AVERAGE
  Property ID: TC
 117 ID: T_20
     QUANTITY: THERMOCOUPLE
     Coordinates (X,Y,Z):    3.142857E-02    1.000000E-03    2.000000E-01
     TEMPORAL STATISTIC: RUNNING AVERAGE
  Property ID: TC
 118 ID: T_20
     QUANTITY: THERMOCOUPLE
     Coordinates (X,Y,Z):    7.357143E-02    1.000000E-03    2.000000E-01
     TEMPORAL STATISTIC: RUNNING AVERAGE
  Property ID: TC
 119 ID: T_20
     QUANTITY: THERMOCOUPLE
     Coordinates (X,Y,Z):    1.157143E-01    1.000000E-03    2.000000E-01
     TEMPORAL STATISTIC: RUNNING AVERAGE
  Property ID: TC
 120 ID: T_20
     QUANTITY: THERMOCOUPLE
     Coordinates (X,Y,Z):    1.578571E-01    1.000000E-03    2.000000E-01
     TEMPORAL STATISTIC: RUNNING AVERAGE
  Property ID: TC
 121 ID: T_20
     QUANTITY: THERMOCOUPLE
     Coordinates (X,Y,Z):    2.000000E-01    1.000000E-03    2.000000E-01
     TEMPORAL STATISTIC: RUNNING AVERAGE
  Property ID: TC
 122 ID: T_20
     QUANTITY: THERMOCOUPLE
     Coordinates (X,Y,Z):    2.421429E-01    1.000000E-03    2.000000E-01
     TEMPORAL STATISTIC: RUNNING AVERAGE
  Property ID: TC
 123 ID: T_20
     QUANTITY: THERMOCOUPLE
     Coordinates (X,Y,Z):    2.842857E-01    1.000000E-03    2.000000E-01
     TEMPORAL STATISTIC: RUNNING AVERAGE
  Property ID: TC
 124 ID: T_20
     QUANTITY: THERMOCOUPLE
     Coordinates (X,Y,Z):    3.264286E-01    1.000000E-03    2.000000E-01
     TEMPORAL STATISTIC: RUNNING AVERAGE
  Property ID: TC
 125 ID: T_20
     QUANTITY: THERMOCOUPLE
     Coordinates (X,Y,Z):    3.685714E-01    1.000000E-03    2.000000E-01
     TEMPORAL STATISTIC: RUNNING AVERAGE
  Property ID: TC
 126 ID: T_20
     QUANTITY: THERMOCOUPLE
     Coordinates (X,Y,Z):    4.107143E-01    1.000000E-03    2.000000E-01
     TEMPORAL STATISTIC: RUNNING AVERAGE
  Property ID: TC
 127 ID: T_20
     QUANTITY: THERMOCOUPLE
     Coordinates (X,Y,Z):    4.528571E-01    1.000000E-03    2.000000E-01
     TEMPORAL STATISTIC: RUNNING AVERAGE
  Property ID: TC
 128 ID: T_20
     QUANTITY: THERMOCOUPLE
     Coordinates (X,Y,Z):    4.950000E-01    1.000000E-03    2.000000E-01
     TEMPORAL STATISTIC: RUNNING AVERAGE
  Property ID: TC
 129 ID: T_20_RMS
     QUANTITY: THERMOCOUPLE
     Coordinates (X,Y,Z):   -9.500000E-02    1.000000E-03    2.000000E-01
     TEMPORAL STATISTIC: RMS
  Property ID: TC
 130 ID: T_20_RMS
     QUANTITY: THERMOCOUPLE
     Coordinates (X,Y,Z):   -5.285714E-02    1.000000E-03    2.000000E-01
     TEMPORAL STATISTIC: RMS
  Property ID: TC
 131 ID: T_20_RMS
     QUANTITY: THERMOCOUPLE
     Coordinates (X,Y,Z):   -1.071429E-02    1.000000E-03    2.000000E-01
     TEMPORAL STATISTIC: RMS
  Property ID: TC
 132 ID: T_20_RMS
     QUANTITY: THERMOCOUPLE
     Coordinates (X,Y,Z):    3.142857E-02    1.000000E-03    2.000000E-01
     TEMPORAL STATISTIC: RMS
  Property ID: TC
 133 ID: T_20_RMS
     QUANTITY: THERMOCOUPLE
     Coordinates (X,Y,Z):    7.357143E-02    1.000000E-03    2.000000E-01
     TEMPORAL STATISTIC: RMS
  Property ID: TC
 134 ID: T_20_RMS
     QUANTITY: THERMOCOUPLE
     Coordinates (X,Y,Z):    1.157143E-01    1.000000E-03    2.000000E-01
     TEMPORAL STATISTIC: RMS
  Property ID: TC
 135 ID: T_20_RMS
     QUANTITY: THERMOCOUPLE
     Coordinates (X,Y,Z):    1.578571E-01    1.000000E-03    2.000000E-01
     TEMPORAL STATISTIC: RMS
  Property ID: TC
 136 ID: T_20_RMS
     QUANTITY: THERMOCOUPLE
     Coordinates (X,Y,Z):    2.000000E-01    1.000000E-03    2.000000E-01
     TEMPORAL STATISTIC: RMS
  Property ID: TC
 137 ID: T_20_RMS
     QUANTITY: THERMOCOUPLE
     Coordinates (X,Y,Z):    2.421429E-01    1.000000E-03    2.000000E-01
     TEMPORAL STATISTIC: RMS
  Property ID: TC
 138 ID: T_20_RMS
     QUANTITY: THERMOCOUPLE
     Coordinates (X,Y,Z):    2.842857E-01    1.000000E-03    2.000000E-01
     TEMPORAL STATISTIC: RMS
  Property ID: TC
 139 ID: T_20_RMS
     QUANTITY: THERMOCOUPLE
     Coordinates (X,Y,Z):    3.264286E-01    1.000000E-03    2.000000E-01
     TEMPORAL STATISTIC: RMS
  Property ID: TC
 140 ID: T_20_RMS
     QUANTITY: THERMOCOUPLE
     Coordinates (X,Y,Z):    3.685714E-01    1.000000E-03    2.000000E-01
     TEMPORAL STATISTIC: RMS
  Property ID: TC
 141 ID: T_20_RMS
     QUANTITY: THERMOCOUPLE
     Coordinates (X,Y,Z):    4.107143E-01    1.000000E-03    2.000000E-01
     TEMPORAL STATISTIC: RMS
  Property ID: TC
 142 ID: T_20_RMS
     QUANTITY: THERMOCOUPLE
     Coordinates (X,Y,Z):    4.528571E-01    1.000000E-03    2.000000E-01
     TEMPORAL STATISTIC: RMS
  Property ID: TC
 143 ID: T_20_RMS
     QUANTITY: THERMOCOUPLE
     Coordinates (X,Y,Z):    4.950000E-01    1.000000E-03    2.000000E-01
     TEMPORAL STATISTIC: RMS
  Property ID: TC
 144 ID: T_60
     QUANTITY: THERMOCOUPLE
     Coordinates (X,Y,Z):   -9.500000E-02    1.000000E-03    6.000000E-01
     TEMPORAL STATISTIC: RUNNING AVERAGE
  Property ID: TC
 145 ID: T_60
     QUANTITY: THERMOCOUPLE
     Coordinates (X,Y,Z):   -5.285714E-02    1.000000E-03    6.000000E-01
     TEMPORAL STATISTIC: RUNNING AVERAGE
  Property ID: TC
 146 ID: T_60
     QUANTITY: THERMOCOUPLE
     Coordinates (X,Y,Z):   -1.071429E-02    1.000000E-03    6.000000E-01
     TEMPORAL STATISTIC: RUNNING AVERAGE
  Property ID: TC
 147 ID: T_60
     QUANTITY: THERMOCOUPLE
     Coordinates (X,Y,Z):    3.142857E-02    1.000000E-03    6.000000E-01
     TEMPORAL STATISTIC: RUNNING AVERAGE
  Property ID: TC
 148 ID: T_60
     QUANTITY: THERMOCOUPLE
     Coordinates (X,Y,Z):    7.357143E-02    1.000000E-03    6.000000E-01
     TEMPORAL STATISTIC: RUNNING AVERAGE
  Property ID: TC
 149 ID: T_60
     QUANTITY: THERMOCOUPLE
     Coordinates (X,Y,Z):    1.157143E-01    1.000000E-03    6.000000E-01
     TEMPORAL STATISTIC: RUNNING AVERAGE
  Property ID: TC
 150 ID: T_60
     QUANTITY: THERMOCOUPLE
     Coordinates (X,Y,Z):    1.578571E-01    1.000000E-03    6.000000E-01
     TEMPORAL STATISTIC: RUNNING AVERAGE
  Property ID: TC
 151 ID: T_60
     QUANTITY: THERMOCOUPLE
     Coordinates (X,Y,Z):    2.000000E-01    1.000000E-03    6.000000E-01
     TEMPORAL STATISTIC: RUNNING AVERAGE
  Property ID: TC
 152 ID: T_60
     QUANTITY: THERMOCOUPLE
     Coordinates (X,Y,Z):    2.421429E-01    1.000000E-03    6.000000E-01
     TEMPORAL STATISTIC: RUNNING AVERAGE
  Property ID: TC
 153 ID: T_60
     QUANTITY: THERMOCOUPLE
     Coordinates (X,Y,Z):    2.842857E-01    1.000000E-03    6.000000E-01
     TEMPORAL STATISTIC: RUNNING AVERAGE
  Property ID: TC
 154 ID: T_60
     QUANTITY: THERMOCOUPLE
     Coordinates (X,Y,Z):    3.264286E-01    1.000000E-03    6.000000E-01
     TEMPORAL STATISTIC: RUNNING AVERAGE
  Property ID: TC
 155 ID: T_60
     QUANTITY: THERMOCOUPLE
     Coordinates (X,Y,Z):    3.685714E-01    1.000000E-03    6.000000E-01
     TEMPORAL STATISTIC: RUNNING AVERAGE
  Property ID: TC
 156 ID: T_60
     QUANTITY: THERMOCOUPLE
     Coordinates (X,Y,Z):    4.107143E-01    1.000000E-03    6.000000E-01
     TEMPORAL STATISTIC: RUNNING AVERAGE
  Property ID: TC
 157 ID: T_60
     QUANTITY: THERMOCOUPLE
     Coordinates (X,Y,Z):    4.528571E-01    1.000000E-03    6.000000E-01
     TEMPORAL STATISTIC: RUNNING AVERAGE
  Property ID: TC
 158 ID: T_60
     QUANTITY: THERMOCOUPLE
     Coordinates (X,Y,Z):    4.950000E-01    1.000000E-03    6.000000E-01
     TEMPORAL STATISTIC: RUNNING AVERAGE
  Property ID: TC
 159 ID: T_60_RMS
     QUANTITY: THERMOCOUPLE
     Coordinates (X,Y,Z):   -9.500000E-02    1.000000E-03    6.000000E-01
     TEMPORAL STATISTIC: RMS
  Property ID: TC
 160 ID: T_60_RMS
     QUANTITY: THERMOCOUPLE
     Coordinates (X,Y,Z):   -5.285714E-02    1.000000E-03    6.000000E-01
     TEMPORAL STATISTIC: RMS
  Property ID: TC
 161 ID: T_60_RMS
     QUANTITY: THERMOCOUPLE
     Coordinates (X,Y,Z):   -1.071429E-02    1.000000E-03    6.000000E-01
     TEMPORAL STATISTIC: RMS
  Property ID: TC
 162 ID: T_60_RMS
     QUANTITY: THERMOCOUPLE
     Coordinates (X,Y,Z):    3.142857E-02    1.000000E-03    6.000000E-01
     TEMPORAL STATISTIC: RMS
  Property ID: TC
 163 ID: T_60_RMS
     QUANTITY: THERMOCOUPLE
     Coordinates (X,Y,Z):    7.357143E-02    1.000000E-03    6.000000E-01
     TEMPORAL STATISTIC: RMS
  Property ID: TC
 164 ID: T_60_RMS
     QUANTITY: THERMOCOUPLE
     Coordinates (X,Y,Z):    1.157143E-01    1.000000E-03    6.000000E-01
     TEMPORAL STATISTIC: RMS
  Property ID: TC
 165 ID: T_60_RMS
     QUANTITY: THERMOCOUPLE
     Coordinates (X,Y,Z):    1.578571E-01    1.000000E-03    6.000000E-01
     TEMPORAL STATISTIC: RMS
  Property ID: TC
 166 ID: T_60_RMS
     QUANTITY: THERMOCOUPLE
     Coordinates (X,Y,Z):    2.000000E-01    1.000000E-03    6.000000E-01
     TEMPORAL STATISTIC: RMS
  Property ID: TC
 167 ID: T_60_RMS
     QUANTITY: THERMOCOUPLE
     Coordinates (X,Y,Z):    2.421429E-01    1.000000E-03    6.000000E-01
     TEMPORAL STATISTIC: RMS
  Property ID: TC
 168 ID: T_60_RMS
     QUANTITY: THERMOCOUPLE
     Coordinates (X,Y,Z):    2.842857E-01    1.000000E-03    6.000000E-01
     TEMPORAL STATISTIC: RMS
  Property ID: TC
 169 ID: T_60_RMS
     QUANTITY: THERMOCOUPLE
     Coordinates (X,Y,Z):    3.264286E-01    1.000000E-03    6.000000E-01
     TEMPORAL STATISTIC: RMS
  Property ID: TC
 170 ID: T_60_RMS
     QUANTITY: THERMOCOUPLE
     Coordinates (X,Y,Z):    3.685714E-01    1.000000E-03    6.000000E-01
     TEMPORAL STATISTIC: RMS
  Property ID: TC
 171 ID: T_60_RMS
     QUANTITY: THERMOCOUPLE
     Coordinates (X,Y,Z):    4.107143E-01    1.000000E-03    6.000000E-01
     TEMPORAL STATISTIC: RMS
  Property ID: TC
 172 ID: T_60_RMS
     QUANTITY: THERMOCOUPLE
     Coordinates (X,Y,Z):    4.528571E-01    1.000000E-03    6.000000E-01
     TEMPORAL STATISTIC: RMS
  Property ID: TC
 173 ID: T_60_RMS
     QUANTITY: THERMOCOUPLE
     Coordinates (X,Y,Z):    4.950000E-01    1.000000E-03    6.000000E-01
     TEMPORAL STATISTIC: RMS
  Property ID: TC
 174 ID: T_100
     QUANTITY: THERMOCOUPLE
     Coordinates (X,Y,Z):   -9.500000E-02    1.000000E-03    1.000000E+00
     TEMPORAL STATISTIC: RUNNING AVERAGE
  Property ID: TC
 175 ID: T_100
     QUANTITY: THERMOCOUPLE
     Coordinates (X,Y,Z):   -5.285714E-02    1.000000E-03    1.000000E+00
     TEMPORAL STATISTIC: RUNNING AVERAGE
  Property ID: TC
 176 ID: T_100
     QUANTITY: THERMOCOUPLE
     Coordinates (X,Y,Z):   -1.071429E-02    1.000000E-03    1.000000E+00
     TEMPORAL STATISTIC: RUNNING AVERAGE
  Property ID: TC
 177 ID: T_100
     QUANTITY: THERMOCOUPLE
     Coordinates (X,Y,Z):    3.142857E-02    1.000000E-03    1.000000E+00
     TEMPORAL STATISTIC: RUNNING AVERAGE
  Property ID: TC
 178 ID: T_100
     QUANTITY: THERMOCOUPLE
     Coordinates (X,Y,Z):    7.357143E-02    1.000000E-03    1.000000E+00
     TEMPORAL STATISTIC: RUNNING AVERAGE
  Property ID: TC
 179 ID: T_100
     QUANTITY: THERMOCOUPLE
     Coordinates (X,Y,Z):    1.157143E-01    1.000000E-03    1.000000E+00
     TEMPORAL STATISTIC: RUNNING AVERAGE
  Property ID: TC
 180 ID: T_100
     QUANTITY: THERMOCOUPLE
     Coordinates (X,Y,Z):    1.578571E-01    1.000000E-03    1.000000E+00
     TEMPORAL STATISTIC: RUNNING AVERAGE
  Property ID: TC
 181 ID: T_100
     QUANTITY: THERMOCOUPLE
     Coordinates (X,Y,Z):    2.000000E-01    1.000000E-03    1.000000E+00
     TEMPORAL STATISTIC: RUNNING AVERAGE
  Property ID: TC
 182 ID: T_100
     QUANTITY: THERMOCOUPLE
     Coordinates (X,Y,Z):    2.421429E-01    1.000000E-03    1.000000E+00
     TEMPORAL STATISTIC: RUNNING AVERAGE
  Property ID: TC
 183 ID: T_100
     QUANTITY: THERMOCOUPLE
     Coordinates (X,Y,Z):    2.842857E-01    1.000000E-03    1.000000E+00
     TEMPORAL STATISTIC: RUNNING AVERAGE
  Property ID: TC
 184 ID: T_100
     QUANTITY: THERMOCOUPLE
     Coordinates (X,Y,Z):    3.264286E-01    1.000000E-03    1.000000E+00
     TEMPORAL STATISTIC: RUNNING AVERAGE
  Property ID: TC
 185 ID: T_100
     QUANTITY: THERMOCOUPLE
     Coordinates (X,Y,Z):    3.685714E-01    1.000000E-03    1.000000E+00
     TEMPORAL STATISTIC: RUNNING AVERAGE
  Property ID: TC
 186 ID: T_100
     QUANTITY: THERMOCOUPLE
     Coordinates (X,Y,Z):    4.107143E-01    1.000000E-03    1.000000E+00
     TEMPORAL STATISTIC: RUNNING AVERAGE
  Property ID: TC
 187 ID: T_100
     QUANTITY: THERMOCOUPLE
     Coordinates (X,Y,Z):    4.528571E-01    1.000000E-03    1.000000E+00
     TEMPORAL STATISTIC: RUNNING AVERAGE
  Property ID: TC
 188 ID: T_100
     QUANTITY: THERMOCOUPLE
     Coordinates (X,Y,Z):    4.950000E-01    1.000000E-03    1.000000E+00
     TEMPORAL STATISTIC: RUNNING AVERAGE
  Property ID: TC
 189 ID: T_100_RMS
     QUANTITY: THERMOCOUPLE
     Coordinates (X,Y,Z):   -9.500000E-02    1.000000E-03    1.000000E+00
     TEMPORAL STATISTIC: RMS
  Property ID: TC
 190 ID: T_100_RMS
     QUANTITY: THERMOCOUPLE
     Coordinates (X,Y,Z):   -5.285714E-02    1.000000E-03    1.000000E+00
     TEMPORAL STATISTIC: RMS
  Property ID: TC
 191 ID: T_100_RMS
     QUANTITY: THERMOCOUPLE
     Coordinates (X,Y,Z):   -1.071429E-02    1.000000E-03    1.000000E+00
     TEMPORAL STATISTIC: RMS
  Property ID: TC
 192 ID: T_100_RMS
     QUANTITY: THERMOCOUPLE
     Coordinates (X,Y,Z):    3.142857E-02    1.000000E-03    1.000000E+00
     TEMPORAL STATISTIC: RMS
  Property ID: TC
 193 ID: T_100_RMS
     QUANTITY: THERMOCOUPLE
     Coordinates (X,Y,Z):    7.357143E-02    1.000000E-03    1.000000E+00
     TEMPORAL STATISTIC: RMS
  Property ID: TC
 194 ID: T_100_RMS
     QUANTITY: THERMOCOUPLE
     Coordinates (X,Y,Z):    1.157143E-01    1.000000E-03    1.000000E+00
     TEMPORAL STATISTIC: RMS
  Property ID: TC
 195 ID: T_100_RMS
     QUANTITY: THERMOCOUPLE
     Coordinates (X,Y,Z):    1.578571E-01    1.000000E-03    1.000000E+00
     TEMPORAL STATISTIC: RMS
  Property ID: TC
 196 ID: T_100_RMS
     QUANTITY: THERMOCOUPLE
     Coordinates (X,Y,Z):    2.000000E-01    1.000000E-03    1.000000E+00
     TEMPORAL STATISTIC: RMS
  Property ID: TC
 197 ID: T_100_RMS
     QUANTITY: THERMOCOUPLE
     Coordinates (X,Y,Z):    2.421429E-01    1.000000E-03    1.000000E+00
     TEMPORAL STATISTIC: RMS
  Property ID: TC
 198 ID: T_100_RMS
     QUANTITY: THERMOCOUPLE
     Coordinates (X,Y,Z):    2.842857E-01    1.000000E-03    1.000000E+00
     TEMPORAL STATISTIC: RMS
  Property ID: TC
 199 ID: T_100_RMS
     QUANTITY: THERMOCOUPLE
     Coordinates (X,Y,Z):    3.264286E-01    1.000000E-03    1.000000E+00
     TEMPORAL STATISTIC: RMS
  Property ID: TC
 200 ID: T_100_RMS
     QUANTITY: THERMOCOUPLE
     Coordinates (X,Y,Z):    3.685714E-01    1.000000E-03    1.000000E+00
     TEMPORAL STATISTIC: RMS
  Property ID: TC
 201 ID: T_100_RMS
     QUANTITY: THERMOCOUPLE
     Coordinates (X,Y,Z):    4.107143E-01    1.000000E-03    1.000000E+00
     TEMPORAL STATISTIC: RMS
  Property ID: TC
 202 ID: T_100_RMS
     QUANTITY: THERMOCOUPLE
     Coordinates (X,Y,Z):    4.528571E-01    1.000000E-03    1.000000E+00
     TEMPORAL STATISTIC: RMS
  Property ID: TC
 203 ID: T_100_RMS
     QUANTITY: THERMOCOUPLE
     Coordinates (X,Y,Z):    4.950000E-01    1.000000E-03    1.000000E+00
     TEMPORAL STATISTIC: RMS
  Property ID: TC
 204 ID: T_140
     QUANTITY: THERMOCOUPLE
     Coordinates (X,Y,Z):   -9.500000E-02    1.000000E-03    1.400000E+00
     TEMPORAL STATISTIC: RUNNING AVERAGE
  Property ID: TC
 205 ID: T_140
     QUANTITY: THERMOCOUPLE
     Coordinates (X,Y,Z):   -5.285714E-02    1.000000E-03    1.400000E+00
     TEMPORAL STATISTIC: RUNNING AVERAGE
  Property ID: TC
 206 ID: T_140
     QUANTITY: THERMOCOUPLE
     Coordinates (X,Y,Z):   -1.071429E-02    1.000000E-03    1.400000E+00
     TEMPORAL STATISTIC: RUNNING AVERAGE
  Property ID: TC
 207 ID: T_140
     QUANTITY: THERMOCOUPLE
     Coordinates (X,Y,Z):    3.142857E-02    1.000000E-03    1.400000E+00
     TEMPORAL STATISTIC: RUNNING AVERAGE
  Property ID: TC
 208 ID: T_140
     QUANTITY: THERMOCOUPLE
     Coordinates (X,Y,Z):    7.357143E-02    1.000000E-03    1.400000E+00
     TEMPORAL STATISTIC: RUNNING AVERAGE
  Property ID: TC
 209 ID: T_140
     QUANTITY: THERMOCOUPLE
     Coordinates (X,Y,Z):    1.157143E-01    1.000000E-03    1.400000E+00
     TEMPORAL STATISTIC: RUNNING AVERAGE
  Property ID: TC
 210 ID: T_140
     QUANTITY: THERMOCOUPLE
     Coordinates (X,Y,Z):    1.578571E-01    1.000000E-03    1.400000E+00
     TEMPORAL STATISTIC: RUNNING AVERAGE
  Property ID: TC
 211 ID: T_140
     QUANTITY: THERMOCOUPLE
     Coordinates (X,Y,Z):    2.000000E-01    1.000000E-03    1.400000E+00
     TEMPORAL STATISTIC: RUNNING AVERAGE
  Property ID: TC
 212 ID: T_140
     QUANTITY: THERMOCOUPLE
     Coordinates (X,Y,Z):    2.421429E-01    1.000000E-03    1.400000E+00
     TEMPORAL STATISTIC: RUNNING AVERAGE
  Property ID: TC
 213 ID: T_140
     QUANTITY: THERMOCOUPLE
     Coordinates (X,Y,Z):    2.842857E-01    1.000000E-03    1.400000E+00
     TEMPORAL STATISTIC: RUNNING AVERAGE
  Property ID: TC
 214 ID: T_140
     QUANTITY: THERMOCOUPLE
     Coordinates (X,Y,Z):    3.264286E-01    1.000000E-03    1.400000E+00
     TEMPORAL STATISTIC: RUNNING AVERAGE
  Property ID: TC
 215 ID: T_140
     QUANTITY: THERMOCOUPLE
     Coordinates (X,Y,Z):    3.685714E-01    1.000000E-03    1.400000E+00
     TEMPORAL STATISTIC: RUNNING AVERAGE
  Property ID: TC
 216 ID: T_140
     QUANTITY: THERMOCOUPLE
     Coordinates (X,Y,Z):    4.107143E-01    1.000000E-03    1.400000E+00
     TEMPORAL STATISTIC: RUNNING AVERAGE
  Property ID: TC
 217 ID: T_140
     QUANTITY: THERMOCOUPLE
     Coordinates (X,Y,Z):    4.528571E-01    1.000000E-03    1.400000E+00
     TEMPORAL STATISTIC: RUNNING AVERAGE
  Property ID: TC
 218 ID: T_140
     QUANTITY: THERMOCOUPLE
     Coordinates (X,Y,Z):    4.950000E-01    1.000000E-03    1.400000E+00
     TEMPORAL STATISTIC: RUNNING AVERAGE
  Property ID: TC
 219 ID: T_140_RMS
     QUANTITY: THERMOCOUPLE
     Coordinates (X,Y,Z):   -9.500000E-02    1.000000E-03    1.400000E+00
     TEMPORAL STATISTIC: RMS
  Property ID: TC
 220 ID: T_140_RMS
     QUANTITY: THERMOCOUPLE
     Coordinates (X,Y,Z):   -5.285714E-02    1.000000E-03    1.400000E+00
     TEMPORAL STATISTIC: RMS
  Property ID: TC
 221 ID: T_140_RMS
     QUANTITY: THERMOCOUPLE
     Coordinates (X,Y,Z):   -1.071429E-02    1.000000E-03    1.400000E+00
     TEMPORAL STATISTIC: RMS
  Property ID: TC
 222 ID: T_140_RMS
     QUANTITY: THERMOCOUPLE
     Coordinates (X,Y,Z):    3.142857E-02    1.000000E-03    1.400000E+00
     TEMPORAL STATISTIC: RMS
  Property ID: TC
 223 ID: T_140_RMS
     QUANTITY: THERMOCOUPLE
     Coordinates (X,Y,Z):    7.357143E-02    1.000000E-03    1.400000E+00
     TEMPORAL STATISTIC: RMS
  Property ID: TC
 224 ID: T_140_RMS
     QUANTITY: THERMOCOUPLE
     Coordinates (X,Y,Z):    1.157143E-01    1.000000E-03    1.400000E+00
     TEMPORAL STATISTIC: RMS
  Property ID: TC
 225 ID: T_140_RMS
     QUANTITY: THERMOCOUPLE
     Coordinates (X,Y,Z):    1.578571E-01    1.000000E-03    1.400000E+00
     TEMPORAL STATISTIC: RMS
  Property ID: TC
 226 ID: T_140_RMS
     QUANTITY: THERMOCOUPLE
     Coordinates (X,Y,Z):    2.000000E-01    1.000000E-03    1.400000E+00
     TEMPORAL STATISTIC: RMS
  Property ID: TC
 227 ID: T_140_RMS
     QUANTITY: THERMOCOUPLE
     Coordinates (X,Y,Z):    2.421429E-01    1.000000E-03    1.400000E+00
     TEMPORAL STATISTIC: RMS
  Property ID: TC
 228 ID: T_140_RMS
     QUANTITY: THERMOCOUPLE
     Coordinates (X,Y,Z):    2.842857E-01    1.000000E-03    1.400000E+00
     TEMPORAL STATISTIC: RMS
  Property ID: TC
 229 ID: T_140_RMS
     QUANTITY: THERMOCOUPLE
     Coordinates (X,Y,Z):    3.264286E-01    1.000000E-03    1.400000E+00
     TEMPORAL STATISTIC: RMS
  Property ID: TC
 230 ID: T_140_RMS
     QUANTITY: THERMOCOUPLE
     Coordinates (X,Y,Z):    3.685714E-01    1.000000E-03    1.400000E+00
     TEMPORAL STATISTIC: RMS
  Property ID: TC
 231 ID: T_140_RMS
     QUANTITY: THERMOCOUPLE
     Coordinates (X,Y,Z):    4.107143E-01    1.000000E-03    1.400000E+00
     TEMPORAL STATISTIC: RMS
  Property ID: TC
 232 ID: T_140_RMS
     QUANTITY: THERMOCOUPLE
     Coordinates (X,Y,Z):    4.528571E-01    1.000000E-03    1.400000E+00
     TEMPORAL STATISTIC: RMS
  Property ID: TC
 233 ID: T_140_RMS
     QUANTITY: THERMOCOUPLE
     Coordinates (X,Y,Z):    4.950000E-01    1.000000E-03    1.400000E+00
     TEMPORAL STATISTIC: RMS
  Property ID: TC
 234 ID: T_180
     QUANTITY: THERMOCOUPLE
     Coordinates (X,Y,Z):   -9.500000E-02    1.000000E-03    1.800000E+00
     TEMPORAL STATISTIC: RUNNING AVERAGE
  Property ID: TC
 235 ID: T_180
     QUANTITY: THERMOCOUPLE
     Coordinates (X,Y,Z):   -5.285714E-02    1.000000E-03    1.800000E+00
     TEMPORAL STATISTIC: RUNNING AVERAGE
  Property ID: TC
 236 ID: T_180
     QUANTITY: THERMOCOUPLE
     Coordinates (X,Y,Z):   -1.071429E-02    1.000000E-03    1.800000E+00
     TEMPORAL STATISTIC: RUNNING AVERAGE
  Property ID: TC
 237 ID: T_180
     QUANTITY: THERMOCOUPLE
     Coordinates (X,Y,Z):    3.142857E-02    1.000000E-03    1.800000E+00
     TEMPORAL STATISTIC: RUNNING AVERAGE
  Property ID: TC
 238 ID: T_180
     QUANTITY: THERMOCOUPLE
     Coordinates (X,Y,Z):    7.357143E-02    1.000000E-03    1.800000E+00
     TEMPORAL STATISTIC: RUNNING AVERAGE
  Property ID: TC
 239 ID: T_180
     QUANTITY: THERMOCOUPLE
     Coordinates (X,Y,Z):    1.157143E-01    1.000000E-03    1.800000E+00
     TEMPORAL STATISTIC: RUNNING AVERAGE
  Property ID: TC
 240 ID: T_180
     QUANTITY: THERMOCOUPLE
     Coordinates (X,Y,Z):    1.578571E-01    1.000000E-03    1.800000E+00
     TEMPORAL STATISTIC: RUNNING AVERAGE
  Property ID: TC
 241 ID: T_180
     QUANTITY: THERMOCOUPLE
     Coordinates (X,Y,Z):    2.000000E-01    1.000000E-03    1.800000E+00
     TEMPORAL STATISTIC: RUNNING AVERAGE
  Property ID: TC
 242 ID: T_180
     QUANTITY: THERMOCOUPLE
     Coordinates (X,Y,Z):    2.421429E-01    1.000000E-03    1.800000E+00
     TEMPORAL STATISTIC: RUNNING AVERAGE
  Property ID: TC
 243 ID: T_180
     QUANTITY: THERMOCOUPLE
     Coordinates (X,Y,Z):    2.842857E-01    1.000000E-03    1.800000E+00
     TEMPORAL STATISTIC: RUNNING AVERAGE
  Property ID: TC
 244 ID: T_180
     QUANTITY: THERMOCOUPLE
     Coordinates (X,Y,Z):    3.264286E-01    1.000000E-03    1.800000E+00
     TEMPORAL STATISTIC: RUNNING AVERAGE
  Property ID: TC
 245 ID: T_180
     QUANTITY: THERMOCOUPLE
     Coordinates (X,Y,Z):    3.685714E-01    1.000000E-03    1.800000E+00
     TEMPORAL STATISTIC: RUNNING AVERAGE
  Property ID: TC
 246 ID: T_180
     QUANTITY: THERMOCOUPLE
     Coordinates (X,Y,Z):    4.107143E-01    1.000000E-03    1.800000E+00
     TEMPORAL STATISTIC: RUNNING AVERAGE
  Property ID: TC
 247 ID: T_180
     QUANTITY: THERMOCOUPLE
     Coordinates (X,Y,Z):    4.528571E-01    1.000000E-03    1.800000E+00
     TEMPORAL STATISTIC: RUNNING AVERAGE
  Property ID: TC
 248 ID: T_180
     QUANTITY: THERMOCOUPLE
     Coordinates (X,Y,Z):    4.950000E-01    1.000000E-03    1.800000E+00
     TEMPORAL STATISTIC: RUNNING AVERAGE
  Property ID: TC
 249 ID: T_180_RMS
     QUANTITY: THERMOCOUPLE
     Coordinates (X,Y,Z):   -9.500000E-02    1.000000E-03    1.800000E+00
     TEMPORAL STATISTIC: RMS
  Property ID: TC
 250 ID: T_180_RMS
     QUANTITY: THERMOCOUPLE
     Coordinates (X,Y,Z):   -5.285714E-02    1.000000E-03    1.800000E+00
     TEMPORAL STATISTIC: RMS
  Property ID: TC
 251 ID: T_180_RMS
     QUANTITY: THERMOCOUPLE
     Coordinates (X,Y,Z):   -1.071429E-02    1.000000E-03    1.800000E+00
     TEMPORAL STATISTIC: RMS
  Property ID: TC
 252 ID: T_180_RMS
     QUANTITY: THERMOCOUPLE
     Coordinates (X,Y,Z):    3.142857E-02    1.000000E-03    1.800000E+00
     TEMPORAL STATISTIC: RMS
  Property ID: TC
 253 ID: T_180_RMS
     QUANTITY: THERMOCOUPLE
     Coordinates (X,Y,Z):    7.357143E-02    1.000000E-03    1.800000E+00
     TEMPORAL STATISTIC: RMS
  Property ID: TC
 254 ID: T_180_RMS
     QUANTITY: THERMOCOUPLE
     Coordinates (X,Y,Z):    1.157143E-01    1.000000E-03    1.800000E+00
     TEMPORAL STATISTIC: RMS
  Property ID: TC
 255 ID: T_180_RMS
     QUANTITY: THERMOCOUPLE
     Coordinates (X,Y,Z):    1.578571E-01    1.000000E-03    1.800000E+00
     TEMPORAL STATISTIC: RMS
  Property ID: TC
 256 ID: T_180_RMS
     QUANTITY: THERMOCOUPLE
     Coordinates (X,Y,Z):    2.000000E-01    1.000000E-03    1.800000E+00
     TEMPORAL STATISTIC: RMS
  Property ID: TC
 257 ID: T_180_RMS
     QUANTITY: THERMOCOUPLE
     Coordinates (X,Y,Z):    2.421429E-01    1.000000E-03    1.800000E+00
     TEMPORAL STATISTIC: RMS
  Property ID: TC
 258 ID: T_180_RMS
     QUANTITY: THERMOCOUPLE
     Coordinates (X,Y,Z):    2.842857E-01    1.000000E-03    1.800000E+00
     TEMPORAL STATISTIC: RMS
  Property ID: TC
 259 ID: T_180_RMS
     QUANTITY: THERMOCOUPLE
     Coordinates (X,Y,Z):    3.264286E-01    1.000000E-03    1.800000E+00
     TEMPORAL STATISTIC: RMS
  Property ID: TC
 260 ID: T_180_RMS
     QUANTITY: THERMOCOUPLE
     Coordinates (X,Y,Z):    3.685714E-01    1.000000E-03    1.800000E+00
     TEMPORAL STATISTIC: RMS
  Property ID: TC
 261 ID: T_180_RMS
     QUANTITY: THERMOCOUPLE
     Coordinates (X,Y,Z):    4.107143E-01    1.000000E-03    1.800000E+00
     TEMPORAL STATISTIC: RMS
  Property ID: TC
 262 ID: T_180_RMS
     QUANTITY: THERMOCOUPLE
     Coordinates (X,Y,Z):    4.528571E-01    1.000000E-03    1.800000E+00
     TEMPORAL STATISTIC: RMS
  Property ID: TC
 263 ID: T_180_RMS
     QUANTITY: THERMOCOUPLE
     Coordinates (X,Y,Z):    4.950000E-01    1.000000E-03    1.800000E+00
     TEMPORAL STATISTIC: RMS
  Property ID: TC
 264 ID: HF_00
     QUANTITY: RADIATIVE HEAT FLUX
     Coordinates (X,Y,Z):    5.200000E-01    1.000000E-03    0.000000E+00
     TEMPORAL STATISTIC: RUNNING AVERAGE
 265 ID: HF_00
     QUANTITY: RADIATIVE HEAT FLUX
     Coordinates (X,Y,Z):    5.648000E-01    2.990000E-03    0.000000E+00
     TEMPORAL STATISTIC: RUNNING AVERAGE
 266 ID: HF_00
     QUANTITY: RADIATIVE HEAT FLUX
     Coordinates (X,Y,Z):    6.096000E-01    4.980000E-03    0.000000E+00
     TEMPORAL STATISTIC: RUNNING AVERAGE
 267 ID: HF_00
     QUANTITY: RADIATIVE HEAT FLUX
     Coordinates (X,Y,Z):    6.544000E-01    6.970000E-03    0.000000E+00
     TEMPORAL STATISTIC: RUNNING AVERAGE
 268 ID: HF_00
     QUANTITY: RADIATIVE HEAT FLUX
     Coordinates (X,Y,Z):    6.992000E-01    8.960000E-03    0.000000E+00
     TEMPORAL STATISTIC: RUNNING AVERAGE
 269 ID: HF_00
     QUANTITY: RADIATIVE HEAT FLUX
     Coordinates (X,Y,Z):    7.440000E-01    1.095000E-02    0.000000E+00
     TEMPORAL STATISTIC: RUNNING AVERAGE
 270 ID: HF_00
     QUANTITY: RADIATIVE HEAT FLUX
     Coordinates (X,Y,Z):    7.888000E-01    1.294000E-02    0.000000E+00
     TEMPORAL STATISTIC: RUNNING AVERAGE
 271 ID: HF_00
     QUANTITY: RADIATIVE HEAT FLUX
     Coordinates (X,Y,Z):    8.336000E-01    1.493000E-02    0.000000E+00
     TEMPORAL STATISTIC: RUNNING AVERAGE
 272 ID: HF_00
     QUANTITY: RADIATIVE HEAT FLUX
     Coordinates (X,Y,Z):    8.784000E-01    1.692000E-02    0.000000E+00
     TEMPORAL STATISTIC: RUNNING AVERAGE
 273 ID: HF_00
     QUANTITY: RADIATIVE HEAT FLUX
     Coordinates (X,Y,Z):    9.232000E-01    1.891000E-02    0.000000E+00
     TEMPORAL STATISTIC: RUNNING AVERAGE
 274 ID: HF_00
     QUANTITY: RADIATIVE HEAT FLUX
     Coordinates (X,Y,Z):    9.680000E-01    2.090000E-02    0.000000E+00
     TEMPORAL STATISTIC: RUNNING AVERAGE
 275 ID: HF_00
     QUANTITY: RADIATIVE HEAT FLUX
     Coordinates (X,Y,Z):    1.012800E+00    2.289000E-02    0.000000E+00
     TEMPORAL STATISTIC: RUNNING AVERAGE
 276 ID: HF_00
     QUANTITY: RADIATIVE HEAT FLUX
     Coordinates (X,Y,Z):    1.057600E+00    2.488000E-02    0.000000E+00
     TEMPORAL STATISTIC: RUNNING AVERAGE
 277 ID: HF_00
     QUANTITY: RADIATIVE HEAT FLUX
     Coordinates (X,Y,Z):    1.102400E+00    2.687000E-02    0.000000E+00
     TEMPORAL STATISTIC: RUNNING AVERAGE
 278 ID: HF_00
     QUANTITY: RADIATIVE HEAT FLUX
     Coordinates (X,Y,Z):    1.147200E+00    2.886000E-02    0.000000E+00
     TEMPORAL STATISTIC: RUNNING AVERAGE
 279 ID: HF_00
     QUANTITY: RADIATIVE HEAT FLUX
     Coordinates (X,Y,Z):    1.192000E+00    3.085000E-02    0.000000E+00
     TEMPORAL STATISTIC: RUNNING AVERAGE
 280 ID: HF_00
     QUANTITY: RADIATIVE HEAT FLUX
     Coordinates (X,Y,Z):    1.236800E+00    3.284000E-02    0.000000E+00
     TEMPORAL STATISTIC: RUNNING AVERAGE
 281 ID: HF_00
     QUANTITY: RADIATIVE HEAT FLUX
     Coordinates (X,Y,Z):    1.281600E+00    3.483000E-02    0.000000E+00
     TEMPORAL STATISTIC: RUNNING AVERAGE
 282 ID: HF_00
     QUANTITY: RADIATIVE HEAT FLUX
     Coordinates (X,Y,Z):    1.326400E+00    3.682000E-02    0.000000E+00
     TEMPORAL STATISTIC: RUNNING AVERAGE
 283 ID: HF_00
     QUANTITY: RADIATIVE HEAT FLUX
     Coordinates (X,Y,Z):    1.371200E+00    3.881000E-02    0.000000E+00
     TEMPORAL STATISTIC: RUNNING AVERAGE
 284 ID: HF_00
     QUANTITY: RADIATIVE HEAT FLUX
     Coordinates (X,Y,Z):    1.416000E+00    4.080000E-02    0.000000E+00
     TEMPORAL STATISTIC: RUNNING AVERAGE
 285 ID: HF_00
     QUANTITY: RADIATIVE HEAT FLUX
     Coordinates (X,Y,Z):    1.460800E+00    4.279000E-02    0.000000E+00
     TEMPORAL STATISTIC: RUNNING AVERAGE
 286 ID: HF_00
     QUANTITY: RADIATIVE HEAT FLUX
     Coordinates (X,Y,Z):    1.505600E+00    4.478000E-02    0.000000E+00
     TEMPORAL STATISTIC: RUNNING AVERAGE
 287 ID: HF_00
     QUANTITY: RADIATIVE HEAT FLUX
     Coordinates (X,Y,Z):    1.550400E+00    4.677000E-02    0.000000E+00
     TEMPORAL STATISTIC: RUNNING AVERAGE
 288 ID: HF_00
     QUANTITY: RADIATIVE HEAT FLUX
     Coordinates (X,Y,Z):    1.595200E+00    4.876000E-02    0.000000E+00
     TEMPORAL STATISTIC: RUNNING AVERAGE
 289 ID: HF_00
     QUANTITY: RADIATIVE HEAT FLUX
     Coordinates (X,Y,Z):    1.640000E+00    5.075000E-02    0.000000E+00
     TEMPORAL STATISTIC: RUNNING AVERAGE
 290 ID: HF_00
     QUANTITY: RADIATIVE HEAT FLUX
     Coordinates (X,Y,Z):    1.684800E+00    5.274000E-02    0.000000E+00
     TEMPORAL STATISTIC: RUNNING AVERAGE
 291 ID: HF_00
     QUANTITY: RADIATIVE HEAT FLUX
     Coordinates (X,Y,Z):    1.729600E+00    5.473000E-02    0.000000E+00
     TEMPORAL STATISTIC: RUNNING AVERAGE
 292 ID: HF_00
     QUANTITY: RADIATIVE HEAT FLUX
     Coordinates (X,Y,Z):    1.774400E+00    5.672000E-02    0.000000E+00
     TEMPORAL STATISTIC: RUNNING AVERAGE
 293 ID: HF_00
     QUANTITY: RADIATIVE HEAT FLUX
     Coordinates (X,Y,Z):    1.819200E+00    5.871000E-02    0.000000E+00
     TEMPORAL STATISTIC: RUNNING AVERAGE
 294 ID: HF_00
     QUANTITY: RADIATIVE HEAT FLUX
     Coordinates (X,Y,Z):    1.864000E+00    6.070000E-02    0.000000E+00
     TEMPORAL STATISTIC: RUNNING AVERAGE
 295 ID: HF_00
     QUANTITY: RADIATIVE HEAT FLUX
     Coordinates (X,Y,Z):    1.908800E+00    6.269000E-02    0.000000E+00
     TEMPORAL STATISTIC: RUNNING AVERAGE
 296 ID: HF_00
     QUANTITY: RADIATIVE HEAT FLUX
     Coordinates (X,Y,Z):    1.953600E+00    6.468000E-02    0.000000E+00
     TEMPORAL STATISTIC: RUNNING AVERAGE
 297 ID: HF_00
     QUANTITY: RADIATIVE HEAT FLUX
     Coordinates (X,Y,Z):    1.998400E+00    6.667000E-02    0.000000E+00
     TEMPORAL STATISTIC: RUNNING AVERAGE
 298 ID: HF_00
     QUANTITY: RADIATIVE HEAT FLUX
     Coordinates (X,Y,Z):    2.043200E+00    6.866000E-02    0.000000E+00
     TEMPORAL STATISTIC: RUNNING AVERAGE
 299 ID: HF_00
     QUANTITY: RADIATIVE HEAT FLUX
     Coordinates (X,Y,Z):    2.088000E+00    7.065000E-02    0.000000E+00
     TEMPORAL STATISTIC: RUNNING AVERAGE
 300 ID: HF_00
     QUANTITY: RADIATIVE HEAT FLUX
     Coordinates (X,Y,Z):    2.132800E+00    7.264000E-02    0.000000E+00
     TEMPORAL STATISTIC: RUNNING AVERAGE
 301 ID: HF_00
     QUANTITY: RADIATIVE HEAT FLUX
     Coordinates (X,Y,Z):    2.177600E+00    7.463000E-02    0.000000E+00
     TEMPORAL STATISTIC: RUNNING AVERAGE
 302 ID: HF_00
     QUANTITY: RADIATIVE HEAT FLUX
     Coordinates (X,Y,Z):    2.222400E+00    7.662000E-02    0.000000E+00
     TEMPORAL STATISTIC: RUNNING AVERAGE
 303 ID: HF_00
     QUANTITY: RADIATIVE HEAT FLUX
     Coordinates (X,Y,Z):    2.267200E+00    7.861000E-02    0.000000E+00
     TEMPORAL STATISTIC: RUNNING AVERAGE
 304 ID: HF_00
     QUANTITY: RADIATIVE HEAT FLUX
     Coordinates (X,Y,Z):    2.312000E+00    8.060000E-02    0.000000E+00
     TEMPORAL STATISTIC: RUNNING AVERAGE
 305 ID: HF_00
     QUANTITY: RADIATIVE HEAT FLUX
     Coordinates (X,Y,Z):    2.356800E+00    8.259000E-02    0.000000E+00
     TEMPORAL STATISTIC: RUNNING AVERAGE
 306 ID: HF_00
     QUANTITY: RADIATIVE HEAT FLUX
     Coordinates (X,Y,Z):    2.401600E+00    8.458000E-02    0.000000E+00
     TEMPORAL STATISTIC: RUNNING AVERAGE
 307 ID: HF_00
     QUANTITY: RADIATIVE HEAT FLUX
     Coordinates (X,Y,Z):    2.446400E+00    8.657000E-02    0.000000E+00
     TEMPORAL STATISTIC: RUNNING AVERAGE
 308 ID: HF_00
     QUANTITY: RADIATIVE HEAT FLUX
     Coordinates (X,Y,Z):    2.491200E+00    8.856000E-02    0.000000E+00
     TEMPORAL STATISTIC: RUNNING AVERAGE
 309 ID: HF_00
     QUANTITY: RADIATIVE HEAT FLUX
     Coordinates (X,Y,Z):    2.536000E+00    9.055000E-02    0.000000E+00
     TEMPORAL STATISTIC: RUNNING AVERAGE
 310 ID: HF_00
     QUANTITY: RADIATIVE HEAT FLUX
     Coordinates (X,Y,Z):    2.580800E+00    9.254000E-02    0.000000E+00
     TEMPORAL STATISTIC: RUNNING AVERAGE
 311 ID: HF_00
     QUANTITY: RADIATIVE HEAT FLUX
     Coordinates (X,Y,Z):    2.625600E+00    9.453000E-02    0.000000E+00
     TEMPORAL STATISTIC: RUNNING AVERAGE
 312 ID: HF_00
     QUANTITY: RADIATIVE HEAT FLUX
[...]
       Pressure Iterations: 3
       Maximum Velocity Error:  0.28E-01 on Mesh 5 at (19,20,18)
       Maximum Pressure Error:  0.23E+02 on Mesh 8 at (2,1,1)
       ---------------------------------------------------------------
       Mesh    1
       Max CFL number:  0.53E+00 at (20,20,18)
       Max divergence:  0.27E+01 at (20,20,6)
       Min divergence: -0.73E+00 at (20,20,20)
       Max VN number:   0.13E+00 at (20,20,19)
       Total Heat Release Rate:              9.136 kW
       Radiation Loss to Boundaries:        -0.046 kW
       Mesh    2
       Max CFL number:  0.62E+00 at (1,20,19)
       Max divergence:  0.29E+01 at (1,20,6)
       Min divergence: -0.74E+00 at (1,20,19)
       Max VN number:   0.11E+00 at (4,17,5)
       Total Heat Release Rate:             12.999 kW
       Radiation Loss to Boundaries:        -1.255 kW
       Mesh    3
       Max CFL number:  0.47E+00 at (20,1,14)
       Max divergence:  0.41E+01 at (20,1,6)
       Min divergence: -0.84E+00 at (20,1,13)
       Max VN number:   0.94E-01 at (20,1,13)
       Total Heat Release Rate:             15.296 kW
       Radiation Loss to Boundaries:        -2.238 kW
       Mesh    4
       Max CFL number:  0.63E+00 at (1,1,14)
       Max divergence:  0.32E+01 at (1,1,6)
       Min divergence: -0.22E+01 at (1,1,12)
       Max VN number:   0.14E+00 at (1,1,18)
       No. of Lagrangian Particles:  102
       Total Heat Release Rate:             22.347 kW
       Radiation Loss to Boundaries:        -6.424 kW
       Mesh    5
       Max CFL number:  0.79E+00 at (19,20,18)
       Max divergence:  0.68E+00 at (20,19,1)
       Min divergence: -0.73E+00 at (20,20,1)
       Max VN number:   0.17E+00 at (19,20,19)
       Total Heat Release Rate:              0.017 kW
       Radiation Loss to Boundaries:         0.083 kW
       Mesh    6
       Max CFL number:  0.69E+00 at (1,20,3)
       Max divergence:  0.67E+00 at (1,19,2)
       Min divergence: -0.12E+01 at (1,20,2)
       Max VN number:   0.14E+00 at (1,20,1)
       Total Heat Release Rate:              0.037 kW
       Radiation Loss to Boundaries:         0.082 kW
       Mesh    7
       Max CFL number:  0.70E+00 at (18,2,16)
       Max divergence:  0.19E+00 at (20,2,1)
       Min divergence: -0.40E+00 at (20,1,3)
       Max VN number:   0.15E+00 at (18,2,17)
       Total Heat Release Rate:              0.039 kW
       Radiation Loss to Boundaries:         0.046 kW
       Mesh    8
       Max CFL number:  0.72E+00 at (1,2,4)
       Max divergence:  0.26E+00 at (4,1,6)
       Min divergence: -0.84E+00 at (1,1,3)
       Max VN number:   0.13E+00 at (1,2,4)
       Total Heat Release Rate:              0.063 kW
       Radiation Loss to Boundaries:         0.026 kW
       Mesh    9
       Max CFL number:  0.27E-01 at (3,14,15)
       Max divergence:  0.99E-04 at (1,20,8)
       Min divergence:  0.70E-05 at (20,10,1)
       Max VN number:   0.49E-02 at (4,2,2)
       Radiation Loss to Boundaries:         0.071 kW
       Mesh   10
       Max CFL number:  0.22E-01 at (6,1,4)
       Max divergence:  0.24E-04 at (1,18,10)
       Min divergence:  0.79E-06 at (18,1,7)
       Max VN number:   0.40E-02 at (5,1,2)
       Radiation Loss to Boundaries:         0.022 kW
       Mesh   11
       Max CFL number:  0.30E-01 at (2,9,15)
       Max divergence:  0.12E-03 at (1,1,9)
       Min divergence:  0.79E-05 at (13,19,1)
       Max VN number:   0.49E-02 at (10,19,3)
       No. of Lagrangian Particles:  210
       Radiation Loss to Boundaries:         0.073 kW
       Mesh   12
       Max CFL number:  0.21E-01 at (2,20,1)
       Max divergence:  0.25E-04 at (1,3,10)
       Min divergence:  0.16E-05 at (19,1,4)
       Max VN number:   0.35E-02 at (3,19,1)
       No. of Lagrangian Particles:  92
       Radiation Loss to Boundaries:         0.022 kW
       Mesh   13
       Max CFL number:  0.32E-01 at (1,20,17)
       Max divergence:  0.66E-04 at (1,20,1)
       Min divergence:  0.60E-05 at (16,2,20)
       Max VN number:   0.42E-02 at (18,19,20)
       Radiation Loss to Boundaries:         0.042 kW
       Mesh   14
       Max CFL number:  0.28E-01 at (3,9,19)
       Max divergence:  0.26E-04 at (4,9,19)
       Min divergence: -0.82E-05 at (13,18,16)
       Max VN number:   0.52E-02 at (13,18,16)
       Radiation Loss to Boundaries:         0.017 kW
       Mesh   15
       Max CFL number:  0.32E-01 at (4,4,19)
       Max divergence:  0.69E-04 at (1,1,1)
       Min divergence:  0.37E-05 at (8,20,13)
       Max VN number:   0.41E-02 at (20,3,20)
       No. of Lagrangian Particles:  7
       Radiation Loss to Boundaries:         0.043 kW
       Mesh   16
       Max CFL number:  0.27E-01 at (5,14,20)
       Max divergence:  0.29E-04 at (5,3,9)
       Min divergence: -0.63E-05 at (15,4,16)
       Max VN number:   0.56E-02 at (5,6,18)
       Radiation Loss to Boundaries:         0.017 kW
 
       Time Step    6800   August 17, 2023  16:31:33
       Step Size:    0.112E-01 s, Total Time:      58.17 s
       Pressure Iterations: 2
       Maximum Velocity Error:  0.48E-01 on Mesh 6 at (2,20,15)
       Maximum Pressure Error:  0.33E+02 on Mesh 8 at (2,2,16)
       ---------------------------------------------------------------
       Mesh    1
       Max CFL number:  0.46E+00 at (20,20,19)
       Max divergence:  0.22E+01 at (20,20,6)
       Min divergence: -0.16E+00 at (19,20,20)
       Max VN number:   0.11E+00 at (17,17,5)
       Total Heat Release Rate:              7.439 kW
       Radiation Loss to Boundaries:         0.146 kW
       Mesh    2
       Max CFL number:  0.64E+00 at (1,20,19)
       Max divergence:  0.29E+01 at (1,20,6)
       Min divergence: -0.90E+00 at (1,20,15)
       Max VN number:   0.12E+00 at (1,20,19)
       Total Heat Release Rate:             12.765 kW
       Radiation Loss to Boundaries:        -1.270 kW
       Mesh    3
       Max CFL number:  0.68E+00 at (20,1,20)
       Max divergence:  0.29E+01 at (20,1,6)
       Min divergence: -0.90E+00 at (20,1,15)
       Max VN number:   0.14E+00 at (20,2,20)
       Total Heat Release Rate:             13.052 kW
       Radiation Loss to Boundaries:        -1.242 kW
       Mesh    4
       Max CFL number:  0.68E+00 at (1,1,15)
       Max divergence:  0.29E+01 at (1,1,6)
       Min divergence: -0.20E+01 at (1,1,13)
       Max VN number:   0.14E+00 at (1,1,12)
       No. of Lagrangian Particles:  102
       Total Heat Release Rate:             23.599 kW
       Radiation Loss to Boundaries:        -7.124 kW
       Mesh    5
       Max CFL number:  0.56E+00 at (20,20,8)
       Max divergence:  0.23E+00 at (20,20,13)
       Min divergence: -0.45E+00 at (20,19,4)
       Max VN number:   0.13E+00 at (20,20,7)
       Total Heat Release Rate:              0.023 kW
       Radiation Loss to Boundaries:         0.068 kW
       Mesh    6
       Max CFL number:  0.72E+00 at (2,20,17)
       Max divergence:  0.41E+00 at (1,19,5)
       Min divergence: -0.73E+00 at (1,20,4)
       Max VN number:   0.14E+00 at (1,20,3)
       Total Heat Release Rate:              0.048 kW
       Radiation Loss to Boundaries:         0.033 kW
       Mesh    7
       Max CFL number:  0.71E+00 at (20,1,17)
       Max divergence:  0.94E+00 at (19,1,1)
       Min divergence: -0.10E+01 at (20,1,1)
       Max VN number:   0.13E+00 at (20,1,17)
       Total Heat Release Rate:              0.023 kW
       Radiation Loss to Boundaries:         0.085 kW
       Mesh    8
       Max CFL number:  0.84E+00 at (2,1,15)
       Max divergence:  0.26E+00 at (3,3,9)
       Min divergence: -0.47E+00 at (1,1,1)
       Max VN number:   0.18E+00 at (2,3,14)
       Total Heat Release Rate:              0.046 kW
       Radiation Loss to Boundaries:         0.012 kW
       Mesh    9
       Max CFL number:  0.30E-01 at (1,14,17)
       Max divergence:  0.96E-04 at (1,20,9)
       Min divergence:  0.79E-05 at (18,3,1)
       Max VN number:   0.51E-02 at (4,2,2)
       Radiation Loss to Boundaries:         0.070 kW
       Mesh   10
       Max CFL number:  0.25E-01 at (6,1,4)
       Max divergence:  0.23E-04 at (1,19,11)
       Min divergence:  0.75E-06 at (18,1,7)
       Max VN number:   0.40E-02 at (6,2,4)
       Radiation Loss to Boundaries:         0.022 kW
       Mesh   11
       Max CFL number:  0.31E-01 at (1,9,16)
       Max divergence:  0.11E-03 at (1,1,8)
       Min divergence:  0.71E-05 at (13,19,1)
       Max VN number:   0.54E-02 at (1,19,3)
       No. of Lagrangian Particles:  210
       Radiation Loss to Boundaries:         0.072 kW
       Mesh   12
       Max CFL number:  0.20E-01 at (3,16,2)
       Max divergence:  0.24E-04 at (1,3,10)
       Min divergence:  0.19E-05 at (17,13,1)
       Max VN number:   0.40E-02 at (20,12,4)
       No. of Lagrangian Particles:  92
       Radiation Loss to Boundaries:         0.021 kW
       Mesh   13
       Max CFL number:  0.35E-01 at (1,20,19)
       Max divergence:  0.67E-04 at (1,20,1)
       Min divergence:  0.38E-05 at (20,19,19)
       Max VN number:   0.45E-02 at (18,19,20)
       Radiation Loss to Boundaries:         0.042 kW
       Mesh   14
       Max CFL number:  0.29E-01 at (2,8,20)
       Max divergence:  0.26E-04 at (2,17,18)
       Min divergence: -0.79E-05 at (13,18,16)
       Max VN number:   0.57E-02 at (13,18,16)
       Radiation Loss to Boundaries:         0.017 kW
       Mesh   15
       Max CFL number:  0.34E-01 at (1,1,20)
       Max divergence:  0.69E-04 at (1,1,1)
       Min divergence:  0.49E-05 at (1,20,16)
       Max VN number:   0.40E-02 at (20,3,19)
       No. of Lagrangian Particles:  7
       Radiation Loss to Boundaries:         0.042 kW
       Mesh   16
       Max CFL number:  0.26E-01 at (3,13,20)
       Max divergence:  0.29E-04 at (3,3,18)
       Min divergence: -0.71E-05 at (15,2,15)
       Max VN number:   0.52E-02 at (5,6,18)
       Radiation Loss to Boundaries:         0.016 kW
 
       Time Step    6900   August 17, 2023  16:32:58
       Step Size:    0.122E-01 s, Total Time:      59.39 s
       Pressure Iterations: 3
       Maximum Velocity Error:  0.37E-01 on Mesh 6 at (2,20,13)
       Maximum Pressure Error:  0.33E+02 on Mesh 8 at (1,2,2)
       ---------------------------------------------------------------
       Mesh    1
       Max CFL number:  0.45E+00 at (20,20,16)
       Max divergence:  0.22E+01 at (20,20,6)
       Min divergence: -0.20E+00 at (20,20,17)
       Max VN number:   0.13E+00 at (17,17,5)
       Total Heat Release Rate:              7.897 kW
       Radiation Loss to Boundaries:        -0.074 kW
       Mesh    2
       Max CFL number:  0.56E+00 at (2,20,19)
       Max divergence:  0.28E+01 at (1,20,6)
       Min divergence: -0.37E+00 at (1,20,17)
       Max VN number:   0.11E+00 at (5,19,5)
       Total Heat Release Rate:             12.695 kW
       Radiation Loss to Boundaries:        -1.321 kW
       Mesh    3
       Max CFL number:  0.64E+00 at (20,1,19)
       Max divergence:  0.30E+01 at (20,1,6)
       Min divergence: -0.76E+00 at (20,1,15)
       Max VN number:   0.11E+00 at (19,5,5)
       Total Heat Release Rate:             11.721 kW
       Radiation Loss to Boundaries:        -0.881 kW
       Mesh    4
       Max CFL number:  0.72E+00 at (1,1,20)
       Max divergence:  0.29E+01 at (1,1,6)
       Min divergence: -0.19E+01 at (1,1,12)
       Max VN number:   0.16E+00 at (1,1,14)
       No. of Lagrangian Particles:  102
       Total Heat Release Rate:             23.113 kW
       Radiation Loss to Boundaries:        -7.090 kW
       Mesh    5
       Max CFL number:  0.83E+00 at (20,20,6)
       Max divergence:  0.26E+00 at (20,20,9)
       Min divergence: -0.35E+00 at (19,20,6)
       Max VN number:   0.17E+00 at (20,20,6)
       Total Heat Release Rate:              0.010 kW
       Radiation Loss to Boundaries:         0.079 kW
       Mesh    6
       Max CFL number:  0.90E+00 at (3,20,12)
       Max divergence:  0.32E+00 at (4,20,13)
       Min divergence: -0.59E+00 at (2,20,5)
       Max VN number:   0.21E+00 at (3,20,12)
       Total Heat Release Rate:              0.048 kW
       Radiation Loss to Boundaries:         0.050 kW
       Mesh    7
       Max CFL number:  0.75E+00 at (20,2,17)
       Max divergence:  0.38E+00 at (20,2,3)
       Min divergence: -0.39E+00 at (20,1,4)
       Max VN number:   0.14E+00 at (19,3,19)
       Total Heat Release Rate:              0.016 kW
       Radiation Loss to Boundaries:         0.064 kW
       Mesh    8
       Max CFL number:  0.82E+00 at (2,1,16)
       Max divergence:  0.26E+00 at (1,2,4)
       Min divergence: -0.89E+00 at (1,1,3)
       Max VN number:   0.15E+00 at (2,1,17)
       Total Heat Release Rate:              0.066 kW
       Radiation Loss to Boundaries:         0.004 kW
       Mesh    9
       Max CFL number:  0.33E-01 at (1,14,18)
       Max divergence:  0.95E-04 at (1,20,9)
       Min divergence:  0.73E-05 at (17,3,1)
       Max VN number:   0.56E-02 at (1,4,2)
       Radiation Loss to Boundaries:         0.068 kW
       Mesh   10
       Max CFL number:  0.26E-01 at (2,1,5)
       Max divergence:  0.23E-04 at (1,19,11)
       Min divergence:  0.70E-06 at (18,1,7)
       Max VN number:   0.44E-02 at (20,17,4)
       Radiation Loss to Boundaries:         0.021 kW
       Mesh   11
       Max CFL number:  0.34E-01 at (1,9,17)
       Max divergence:  0.11E-03 at (1,1,8)
       Min divergence:  0.72E-05 at (8,14,1)
       Max VN number:   0.60E-02 at (2,19,3)
       No. of Lagrangian Particles:  210
       Radiation Loss to Boundaries:         0.070 kW
       Mesh   12
       Max CFL number:  0.22E-01 at (2,17,15)
       Max divergence:  0.24E-04 at (1,3,10)
       Min divergence:  0.22E-05 at (16,13,1)
       Max VN number:   0.49E-02 at (20,12,4)
       No. of Lagrangian Particles:  92
       Radiation Loss to Boundaries:         0.021 kW
       Mesh   13
       Max CFL number:  0.39E-01 at (1,20,19)
       Max divergence:  0.64E-04 at (1,20,1)
       Min divergence:  0.59E-05 at (20,20,18)
       Max VN number:   0.48E-02 at (17,19,20)
       Radiation Loss to Boundaries:         0.040 kW
       Mesh   14
       Max CFL number:  0.30E-01 at (2,7,20)
       Max divergence:  0.32E-04 at (1,17,19)
       Min divergence: -0.54E-05 at (13,18,16)
       Max VN number:   0.57E-02 at (13,18,16)
       Radiation Loss to Boundaries:         0.016 kW
       Mesh   15
       Max CFL number:  0.39E-01 at (1,1,19)
       Max divergence:  0.71E-04 at (1,2,2)
       Min divergence:  0.66E-05 at (8,20,15)
       Max VN number:   0.40E-02 at (7,15,9)
       No. of Lagrangian Particles:  7
       Radiation Loss to Boundaries:         0.041 kW
       Mesh   16
       Max CFL number:  0.28E-01 at (20,17,8)
       Max divergence:  0.31E-04 at (1,3,19)
       Min divergence: -0.55E-05 at (15,1,15)
       Max VN number:   0.56E-02 at (4,6,19)
       Radiation Loss to Boundaries:         0.016 kW
 
       Time Step    6950   August 17, 2023  16:33:40
       Step Size:    0.882E-02 s, Total Time:      60.00 s
       Pressure Iterations: 3
       Maximum Velocity Error:  0.29E-01 on Mesh 4 at (2,1,20)
       Maximum Pressure Error:  0.36E+02 on Mesh 8 at (2,1,2)
       ---------------------------------------------------------------
       Mesh    1
       Max CFL number:  0.38E+00 at (20,20,15)
       Max divergence:  0.21E+01 at (20,20,6)
       Min divergence: -0.40E+00 at (20,20,17)
       Max VN number:   0.97E-01 at (16,19,5)
       Total Heat Release Rate:              8.892 kW
       Radiation Loss to Boundaries:        -0.254 kW
       Mesh    2
       Max CFL number:  0.53E+00 at (1,20,20)
       Max divergence:  0.29E+01 at (1,20,6)
       Min divergence: -0.99E+00 at (1,20,16)
       Max VN number:   0.97E-01 at (1,20,20)
       Total Heat Release Rate:             12.282 kW
       Radiation Loss to Boundaries:        -1.277 kW
       Mesh    3
       Max CFL number:  0.34E+00 at (20,1,14)
       Max divergence:  0.29E+01 at (20,1,6)
       Min divergence: -0.40E+00 at (20,1,14)
       Max VN number:   0.80E-01 at (19,5,5)
       Total Heat Release Rate:             11.800 kW
       Radiation Loss to Boundaries:        -0.926 kW
       Mesh    4
       Max CFL number:  0.52E+00 at (1,1,20)
       Max divergence:  0.38E+01 at (1,1,6)
       Min divergence: -0.22E+01 at (1,1,13)
       Max VN number:   0.12E+00 at (1,1,15)
       No. of Lagrangian Particles:  102
       Total Heat Release Rate:             23.576 kW
       Radiation Loss to Boundaries:        -6.938 kW
       Mesh    5
       Max CFL number:  0.54E+00 at (20,20,12)
       Max divergence:  0.31E+00 at (20,20,2)
       Min divergence: -0.35E+00 at (20,20,12)
       Max VN number:   0.12E+00 at (20,20,12)
       Total Heat Release Rate:              0.012 kW
       Radiation Loss to Boundaries:         0.081 kW
       Mesh    6
       Max CFL number:  0.59E+00 at (1,20,11)
       Max divergence:  0.45E+00 at (3,20,1)
       Min divergence: -0.81E+00 at (1,20,1)
       Max VN number:   0.11E+00 at (1,20,11)
       Total Heat Release Rate:              0.039 kW
       Radiation Loss to Boundaries:         0.049 kW
       Mesh    7
       Max CFL number:  0.57E+00 at (20,2,4)
       Max divergence:  0.27E+00 at (20,3,6)
       Min divergence: -0.36E+00 at (20,1,3)
       Max VN number:   0.11E+00 at (20,2,4)
       Total Heat Release Rate:              0.026 kW
       Radiation Loss to Boundaries:         0.073 kW
       Mesh    8
       Max CFL number:  0.65E+00 at (1,2,14)
       Max divergence:  0.51E+00 at (1,2,17)
       Min divergence: -0.14E+01 at (2,1,2)
       Max VN number:   0.15E+00 at (2,1,1)
       Total Heat Release Rate:              0.061 kW
       Radiation Loss to Boundaries:         0.017 kW
       Mesh    9
       Max CFL number:  0.23E-01 at (1,14,18)
       Max divergence:  0.95E-04 at (1,20,9)
       Min divergence:  0.47E-05 at (20,1,1)
       Max VN number:   0.41E-02 at (1,4,2)
       Radiation Loss to Boundaries:         0.068 kW
       Mesh   10
       Max CFL number:  0.19E-01 at (5,1,5)
       Max divergence:  0.23E-04 at (3,6,19)
       Min divergence:  0.13E-05 at (18,1,7)
       Max VN number:   0.33E-02 at (18,14,2)
       Radiation Loss to Boundaries:         0.021 kW
       Mesh   11
       Max CFL number:  0.25E-01 at (1,9,18)
       Max divergence:  0.11E-03 at (1,1,8)
       Min divergence:  0.64E-05 at (7,15,1)
       Max VN number:   0.40E-02 at (10,19,4)
       No. of Lagrangian Particles:  210
       Radiation Loss to Boundaries:         0.070 kW
       Mesh   12
       Max CFL number:  0.16E-01 at (2,15,13)
       Max divergence:  0.24E-04 at (1,3,10)
       Min divergence:  0.21E-05 at (16,13,1)
       Max VN number:   0.37E-02 at (20,12,4)
       No. of Lagrangian Particles:  92
       Radiation Loss to Boundaries:         0.021 kW
       Mesh   13
       Max CFL number:  0.28E-01 at (1,20,17)
       Max divergence:  0.65E-04 at (1,20,1)
       Min divergence:  0.55E-05 at (20,20,19)
       Max VN number:   0.34E-02 at (17,19,20)
       Radiation Loss to Boundaries:         0.041 kW
       Mesh   14
       Max CFL number:  0.21E-01 at (2,7,20)
       Max divergence:  0.27E-04 at (2,17,19)
       Min divergence: -0.42E-05 at (15,18,15)
       Max VN number:   0.39E-02 at (15,18,16)
       Radiation Loss to Boundaries:         0.016 kW
       Mesh   15
       Max CFL number:  0.29E-01 at (1,1,19)
       Max divergence:  0.72E-04 at (1,2,3)
       Min divergence:  0.64E-05 at (19,1,20)
       Max VN number:   0.33E-02 at (4,20,14)
       No. of Lagrangian Particles:  7
       Radiation Loss to Boundaries:         0.041 kW
       Mesh   16
       Max CFL number:  0.20E-01 at (5,14,20)
       Max divergence:  0.32E-04 at (1,3,19)
       Min divergence: -0.61E-05 at (15,1,15)
       Max VN number:   0.41E-02 at (20,15,8)
       Radiation Loss to Boundaries:         0.016 kW
 


 Time Stepping Wall Clock Time (s):     6002.994
 Total Elapsed Wall Clock Time (s):     6041.868

STOP: FDS completed successfully (CHID: NIST_Methanol_1m_GEOM_Predicted_10cm_cat)
