
 Fire Dynamics Simulator

 Current Date     : August 21, 2023  14:55:00
 Revision         : FDS-6.8.0-575-g0c0e32a-master
 Revision Date    : Fri Aug 18 17:38:45 2023 -0400
 Compiler         : ifort version 2021.7.1
 Compilation Date : Aug 21, 2023 14:27:03

 MPI Enabled;    Number of MPI Processes:      96
 OpenMP Disabled

 MPI version: 3.1
 MPI library version: Intel(R) MPI Library 2021.7 for Linux* OS


 Job TITLE        : (Concatenated) NIST Methanol Pool, 0.5 cm resolution
 Job ID string    : NIST_Methanol_GEOM_Predicted_p5cm_cat


 Miscellaneous Parameters

   Simulation Start Time (s)          0.0
   Simulation End Time (s)           60.0
   Background Pressure (Pa)     101325.00
   Ambient Temperature (C)          16.00

   3D Cartesian
   LES Calculation
   Eddy Viscosity Model:  Deardorff (C_DEARDORFF = 0.10)
   Surface INERT Eddy Viscosity Model:  WALE (C_WALE = 0.60)
   Surface PAN Eddy Viscosity Model:  WALE (C_WALE = 0.60)
   Surface POOL Eddy Viscosity Model:  WALE (C_WALE = 0.60)
   Turbulent Prandtl Number:         0.50
   Turbulent Schmidt Number:         0.50


 Pressure solver information

   Solver:                          ULMAT
   Velocity tolerance (m/s):    2.500E-03
   Press eqn res tol (1/s^2):   8.000E+05
   Max pressure iterations:            10


 Mass Fraction Transformation Matrix to Convert Species Mixtures (Columns) to Primitive Species (Rows)

                         AIR       METHANOL  INTERMED  PRODUCTS
   NITROGEN              0.764811  0.000000  0.522399  0.662358
   OXYGEN                0.231707  0.000000  0.000000  0.000000
   CARBON DIOXIDE        0.000593  0.000000  0.000405  0.184506
   WATER VAPOR           0.002889  0.000000  0.180180  0.153136
   CARBON MONOXIDE       0.000000  0.000000  0.277075  0.000000
   SOOT                  0.000000  0.000000  0.000000  0.000000
   HYDROGEN              0.000000  0.000000  0.019941  0.000000
   HYDROGEN CYANIDE      0.000000  0.000000  0.000000  0.000000
   METHANOL              0.000000  1.000000  0.000000  0.000000


 Primitive Species Information

   NITROGEN
   Gas Species
   Molecular Weight (g/mol)                28.01340
   Ambient Density (kg/m^3)                1.181
           Enthalpy of Formation (J/kg)  0.000E+00

   OXYGEN
   Gas Species
   Molecular Weight (g/mol)                31.99880
   Ambient Density (kg/m^3)                1.349
           Enthalpy of Formation (J/kg)  0.000E+00

   CARBON DIOXIDE
   Gas Species
   Molecular Weight (g/mol)                44.00950
   Ambient Density (kg/m^3)                1.855
           Enthalpy of Formation (J/kg) -8.941E+06

   WATER VAPOR
   Gas Species
   Molecular Weight (g/mol)                18.01528
   Ambient Density (kg/m^3)                0.759
           Enthalpy of Formation (J/kg) -1.342E+07

   CARBON MONOXIDE
   Gas Species
   Molecular Weight (g/mol)                28.01010
   Ambient Density (kg/m^3)                1.181
           Enthalpy of Formation (J/kg) -3.946E+06

   SOOT
   Gas Species
   Molecular Weight (g/mol)                12.01070
   Ambient Density (kg/m^3)                0.506
           Enthalpy of Formation (J/kg)  0.000E+00

   HYDROGEN
   Gas Species
   Molecular Weight (g/mol)                 2.01588
   Ambient Density (kg/m^3)                0.085
           Enthalpy of Formation (J/kg)  0.000E+00

   HYDROGEN CYANIDE
   Gas Species
   Molecular Weight (g/mol)                27.02534
   Ambient Density (kg/m^3)                1.139
           Enthalpy of Formation (J/kg)  4.924E+06

   METHANOL
   Gas Species
   Molecular Weight (g/mol)                32.04186
   Ambient Density (kg/m^3)                1.350
           Enthalpy of Formation (J/kg) -6.271E+06


 Tracked (Lumped) Species Information

   AIR
   Molecular Weight (g/mol)            28.80470
   Ambient Density (kg/m^3)            1.214
   Initial Mass Fraction               1.000
   Enthalpy of Formation (J/kg)     -4.408E+04

   Sub Species                    Mass Fraction     Mole Fraction
   NITROGEN                       7.648113E-01      7.864151E-01
   OXYGEN                         2.317067E-01      2.085779E-01
   CARBON DIOXIDE                 5.932813E-04      3.883091E-04
   WATER VAPOR                    2.888634E-03      4.618647E-03
 
     Viscosity (kg/m/s) Ambient,  289 K:  1.780E-05
                                  500 K:  2.616E-05
                                 1000 K:  4.127E-05
                                 1500 K:  5.372E-05
                                 2000 K:  6.475E-05
   Therm. Cond. (W/m/K) Ambient,  289 K:  2.532E-02
                                  500 K:  3.815E-02
                                 1000 K:  6.680E-02
                                 1500 K:  9.232E-02
                                 2000 K:  1.150E-01
        Enthalpy (J/kg) Ambient,  289 K: -5.320E+04
                                  500 K:  1.626E+05
                                 1000 K:  7.109E+05
                                 1500 K:  1.307E+06
                                 2000 K:  1.930E+06
    Spec. Heat (J/kg/K) Ambient,  289 K:  1.013E+03
                                  500 K:  1.039E+03
                                 1000 K:  1.153E+03
                                 1500 K:  1.224E+03
                                 2000 K:  1.265E+03
   Diff. Coeff. (m^2/s) Ambient,  289 K:  1.943E-05
                                  500 K:  4.957E-05
                                 1000 K:  1.578E-04
                                 1500 K:  3.091E-04
                                 2000 K:  4.977E-04
 Gibbs Energy Amb. (kJ/mol),  289 K: -5.722E+01
                                  500 K: -9.997E+01
                                 1000 K: -2.109E+02
                                 1500 K: -3.305E+02
                                 2000 K: -4.560E+02

   METHANOL
   Molecular Weight (g/mol)            32.04186
   Ambient Density (kg/m^3)            1.350
   Initial Mass Fraction               0.000
   Enthalpy of Formation (J/kg)     -6.271E+06

   Sub Species                    Mass Fraction     Mole Fraction
   METHANOL                       1.000000E+00      1.000000E+00
 
     Viscosity (kg/m/s) Ambient,  289 K:  9.373E-06
                                  500 K:  1.644E-05
                                 1000 K:  3.130E-05
                                 1500 K:  4.324E-05
                                 2000 K:  5.347E-05
   Therm. Cond. (W/m/K) Ambient,  289 K:  1.339E-02
                                  500 K:  3.224E-02
                                 1000 K:  9.206E-02
                                 1500 K:  1.497E-01
                                 2000 K:  2.000E-01
        Enthalpy (J/kg) Ambient,  289 K: -6.283E+06
                                  500 K: -5.946E+06
                                 1000 K: -4.758E+06
                                 1500 K: -3.224E+06
                                 2000 K: -1.507E+06
    Spec. Heat (J/kg/K) Ambient,  289 K:  1.357E+03
                                  500 K:  1.863E+03
                                 1000 K:  2.794E+03
                                 1500 K:  3.289E+03
                                 2000 K:  3.553E+03
   Diff. Coeff. (m^2/s) Ambient,  289 K:  1.469E-05
                                  500 K:  4.034E-05
                                 1000 K:  1.345E-04
                                 1500 K:  2.667E-04
                                 2000 K:  4.310E-04
 Gibbs Energy Amb. (kJ/mol),  289 K: -2.703E+02
                                  500 K: -3.236E+02
                                 1000 K: -4.702E+02
                                 1500 K: -6.394E+02
                                 2000 K: -8.262E+02

   INTERMEDIATE PRODUCTS
   Molecular Weight (g/mol)            20.64289
   Ambient Density (kg/m^3)            0.870
   Initial Mass Fraction               0.000
   Enthalpy of Formation (J/kg)     -3.516E+06

   Sub Species                    Mass Fraction     Mole Fraction
   NITROGEN                       5.223989E-01      3.849523E-01
   CARBON DIOXIDE                 4.052365E-04      1.900784E-04
   WATER VAPOR                    1.801797E-01      2.064598E-01
   CARBON MONOXIDE                2.770751E-01      2.041989E-01
   SOOT                           0.000000E+00      0.000000E+00
   HYDROGEN                       1.994103E-02      2.041989E-01
   HYDROGEN CYANIDE               0.000000E+00      0.000000E+00
 
     Viscosity (kg/m/s) Ambient,  289 K:  1.524E-05
                                  500 K:  2.284E-05
                                 1000 K:  3.760E-05
                                 1500 K:  5.003E-05
                                 2000 K:  6.099E-05
   Therm. Cond. (W/m/K) Ambient,  289 K:  3.424E-02
                                  500 K:  5.201E-02
                                 1000 K:  9.300E-02
                                 1500 K:  1.337E-01
                                 2000 K:  1.717E-01
        Enthalpy (J/kg) Ambient,  289 K: -3.529E+06
                                  500 K: -3.219E+06
                                 1000 K: -2.436E+06
                                 1500 K: -1.574E+06
                                 2000 K: -6.524E+05
    Spec. Heat (J/kg/K) Ambient,  289 K:  1.452E+03
                                  500 K:  1.488E+03
                                 1000 K:  1.650E+03
                                 1500 K:  1.791E+03
                                 2000 K:  1.887E+03
   Diff. Coeff. (m^2/s) Ambient,  289 K:  3.013E-05
                                  500 K:  7.780E-05
                                 1000 K:  2.500E-04
                                 1500 K:  4.911E-04
                                 2000 K:  7.918E-04
 Gibbs Energy Amb. (kJ/mol),  289 K: -1.297E+02
                                  500 K: -1.719E+02
                                 1000 K: -2.816E+02
                                 1500 K: -4.002E+02
                                 2000 K: -5.250E+02

   PRODUCTS
   Molecular Weight (g/mol)            27.52010
   Ambient Density (kg/m^3)            1.160
   Initial Mass Fraction               0.000
   Enthalpy of Formation (J/kg)     -3.705E+06

   Sub Species                    Mass Fraction     Mole Fraction
   NITROGEN                       6.623584E-01      6.506946E-01
   CARBON DIOXIDE                 1.845058E-01      1.153755E-01
   WATER VAPOR                    1.531358E-01      2.339299E-01
   CARBON MONOXIDE                0.000000E+00      0.000000E+00
   SOOT                           0.000000E+00      0.000000E+00
   HYDROGEN CYANIDE               0.000000E+00      0.000000E+00
 
     Viscosity (kg/m/s) Ambient,  289 K:  1.555E-05
                                  500 K:  2.346E-05
                                 1000 K:  3.874E-05
                                 1500 K:  5.150E-05
                                 2000 K:  6.273E-05
   Therm. Cond. (W/m/K) Ambient,  289 K:  2.279E-02
                                  500 K:  3.600E-02
                                 1000 K:  6.812E-02
                                 1500 K:  9.904E-02
                                 2000 K:  1.271E-01
        Enthalpy (J/kg) Ambient,  289 K: -3.716E+06
                                  500 K: -3.472E+06
                                 1000 K: -2.837E+06
                                 1500 K: -2.129E+06
                                 2000 K: -1.374E+06
    Spec. Heat (J/kg/K) Ambient,  289 K:  1.128E+03
                                  500 K:  1.186E+03
                                 1000 K:  1.352E+03
                                 1500 K:  1.471E+03
                                 2000 K:  1.543E+03
   Diff. Coeff. (m^2/s) Ambient,  289 K:  1.910E-05
                                  500 K:  5.010E-05
                                 1000 K:  1.628E-04
                                 1500 K:  3.206E-04
                                 2000 K:  5.175E-04
 Gibbs Energy Amb. (kJ/mol),  289 K: -1.661E+02
                                  500 K: -2.091E+02
                                 1000 K: -3.217E+02
                                 1500 K: -4.442E+02
                                 2000 K: -5.736E+02


 Gas Phase Reaction Information

   Reaction 1

      Priority:                                                               1

      Fuel                                           Heat of Combustion (kJ/kg)
      METHANOL                                                        4725.7305
      2-step reaction,  Total Heat of Combustion                     21104.3304

      Primitive Species Stoich. Coeff.
      Species ID                                                          Molar
      OXYGEN                                                          -0.500000
      WATER VAPOR                                                      1.000000
      CARBON MONOXIDE                                                  1.000000
      HYDROGEN                                                         1.000000
      METHANOL                                                        -1.000000

      Tracked (Lumped) Species Stoich. Coeff.
      Species ID                                             Molar         Mass
      AIR                                                -2.397186    -2.155000
      METHANOL                                           -1.000000    -1.000000
      INTERMEDIATE PRODUCTS                               4.897186     3.155000

      Reaction Kinetics

      Fast chemistry

      ODE Solver:  EXPLICIT EULER

      Extinction Model:  EXTINCTION 2
      Auto-Ignition Temperature (C):            -273.1
      Critical Flame Temperature (C):           1257.0

      Prescribed Radiative Fraction:             0.220

   Reaction 2

      Priority:                                                               2

      Fuel                                           Heat of Combustion (kJ/kg)
      INTERMEDIATE PRODUCTS                                           5191.3151

      Primitive Species Stoich. Coeff.
      Species ID                                                          Molar
      OXYGEN                                                          -0.204199
      CARBON DIOXIDE                                                   0.204199
      WATER VAPOR                                                      0.204199
      CARBON MONOXIDE                                                 -0.204199
      HYDROGEN                                                        -0.204199

      Tracked (Lumped) Species Stoich. Coeff.
      Species ID                                             Molar         Mass
      AIR                                                -0.979005    -1.366086
      INTERMEDIATE PRODUCTS                              -1.000000    -1.000000
      PRODUCTS                                            1.774806     2.366086

      Reaction Kinetics

      Fast chemistry

      ODE Solver:  EXPLICIT EULER

      Prescribed Radiative Fraction:             0.220


 Material Information

   1 STEEL
     Emissivity:                                  0.800
     Density (kg/m3):                            7800.0
     Specific Heat (kJ/kg/K) Ambient,  289 K:  4.650E-01
                                       350 K:  4.650E-01
                                       500 K:  4.650E-01
                                       800 K:  4.650E-01
     Therm. Cond. (W/m/K) Ambient,     289 K:  5.400E+01
                                       350 K:  5.400E+01
                                       500 K:  5.400E+01
                                       800 K:  5.400E+01
     Enthalpy (kJ/kg) Ambient,         289 K:  1.344E+02
                                       350 K:  1.628E+02
                                       500 K:  2.325E+02
                                       800 K:  3.720E+02

   2 METHANOL LIQUID
     Emissivity:                                  1.000
     Density (kg/m3):                             796.0
     Specific Heat (kJ/kg/K) Ambient,  289 K:  2.480E+00
                                       350 K:  2.480E+00
                                       500 K:  2.480E+00
                                       800 K:  2.480E+00
     Therm. Cond. (W/m/K) Ambient,     289 K:  2.000E-01
                                       350 K:  2.000E-01
                                       500 K:  2.000E-01
                                       800 K:  2.000E-01
     Enthalpy (kJ/kg) Ambient,         289 K: -7.435E+03
                                       350 K: -7.284E+03
                                       500 K: -6.912E+03
                                       800 K: -6.168E+03
     Absorption coefficient (1/m)  1500.00
     Liquid evaporation reaction
        Gaseous Yields:
        AIR                                                         :     0.00
        METHANOL                                                    :     1.00
        INTERMEDIATE PRODUCTS                                       :     0.00
        PRODUCTS                                                    :     0.00
        Boiling temperature (C):    64.65
        H_R (kJ/kg)            :  1.151E+03


 Surface Conditions

   0 INERT (DEFAULT)

   1 PAN
     Material List
          1  STEEL
     Layer  1
        Thickness   (m):  0.00300
        Density (kg/m3):  7800.00
        STEEL, Mass fraction:    1.00
     Reaction products considered from the first  0.50 layers.
     Total surface density    23.400 kg/m2
     Solid Phase Node, Layer, Coordinates(m):
                    0      1       0.0000000
                    1      1       0.0030000
     Exposed Backing

   2 POOL
     Material List
          1  METHANOL LIQUID
     Layer  1
        Thickness   (m):  0.15000
        Density (kg/m3):   796.00
        METHANOL LIQUID, Mass fraction:    1.00
     Reaction products considered from the first  0.50 layers.
     Total surface density   119.400 kg/m2
     Solid Phase Node, Layer, Coordinates(m):
                    0      1       0.0000000
                    1      1       0.0002941
                    2      1       0.0008824
                    3      1       0.0020588
                    4      1       0.0044118
                    5      1       0.0091176
                    6      1       0.0185294
                    7      1       0.0373529
                    8      1       0.0750000
                    9      1       0.1126471
                   10      1       0.1314706
                   11      1       0.1408824
                   12      1       0.1455882
                   13      1       0.1479412
                   14      1       0.1491176
                   15      1       0.1497059
                   16      1       0.1500000
     Exposed Backing

   3 OPEN
     Passive Vent to Atmosphere

   4 MIRROR
     Symmetry Plane

   5 INTERPOLATED

   6 PERIODIC

   7 HVAC

   8 MASSLESS TRACER

   9 DROPLET

  10 MASSLESS TARGET

  11 PERIODIC FLOW ONLY


 Lagrangian Particle Classes

   1 RESERVED TARGET PARTICLE
     SURFace ID: MASSLESS TARGET
     # Reals: 690
     # Integers: 24
     # Logicals: 5


 PROPerty Information

   1 TC
     Smokeview ID                sensor

   2 TC2
     Smokeview ID                sensor


 Cut-off Density and Temperature

    Minimum Temperature:  -259.1 C
    Maximum Temperature:  2726.8 C
    Minimum Density:  1.214E-01 kg/m3
    Maximum Density:  5.578E+01 kg/m3


 Device Information

   1 ID: MLRPUA
     QUANTITY: BURNING RATE
     Coordinates (X,Y,Z):   -5.000000E-05   -5.000000E-05    4.500000E-02
     SPATIAL STATISTIC: MEAN
     TEMPORAL STATISTIC: TIME AVERAGE
   2 ID: HEAT_FLUX
     QUANTITY: TOTAL HEAT FLUX
     Coordinates (X,Y,Z):   -5.000000E-05   -5.000000E-05    4.500000E-02
     SPATIAL STATISTIC: MEAN
     TEMPORAL STATISTIC: TIME AVERAGE
   3 ID: MLRPUA_ideal
     QUANTITY: TOTAL HEAT FLUX
     Coordinates (X,Y,Z):   -5.000000E-05   -5.000000E-05    4.500000E-02
     SPATIAL STATISTIC: MEAN
     TEMPORAL STATISTIC: TIME AVERAGE
   4 ID: T_SURF_MEAN
     QUANTITY: WALL TEMPERATURE
     Coordinates (X,Y,Z):   -5.000000E-05   -5.000000E-05    4.500000E-02
     SPATIAL STATISTIC: MEAN
     TEMPORAL STATISTIC: TIME AVERAGE
   5 ID: T_SURF_MAX
     QUANTITY: WALL TEMPERATURE
     Coordinates (X,Y,Z):   -5.000000E-05   -5.000000E-05    4.500000E-02
     SPATIAL STATISTIC: MAX
     TEMPORAL STATISTIC: TIME AVERAGE
   6 ID: TC_CL
     QUANTITY: THERMOCOUPLE
     Coordinates (X,Y,Z):    1.000000E-03    1.000000E-03    1.000000E-02
     TEMPORAL STATISTIC: RUNNING AVERAGE
  Property ID: TC
   7 ID: TC_CL
     QUANTITY: THERMOCOUPLE
     Coordinates (X,Y,Z):    1.000000E-03    1.000000E-03    3.000000E-02
     TEMPORAL STATISTIC: RUNNING AVERAGE
  Property ID: TC
   8 ID: TC_CL
     QUANTITY: THERMOCOUPLE
     Coordinates (X,Y,Z):    1.000000E-03    1.000000E-03    5.000000E-02
     TEMPORAL STATISTIC: RUNNING AVERAGE
  Property ID: TC
   9 ID: TC_CL
     QUANTITY: THERMOCOUPLE
     Coordinates (X,Y,Z):    1.000000E-03    1.000000E-03    7.000000E-02
     TEMPORAL STATISTIC: RUNNING AVERAGE
  Property ID: TC
  10 ID: TC_CL
     QUANTITY: THERMOCOUPLE
     Coordinates (X,Y,Z):    1.000000E-03    1.000000E-03    9.000000E-02
     TEMPORAL STATISTIC: RUNNING AVERAGE
  Property ID: TC
  11 ID: TC_CL
     QUANTITY: THERMOCOUPLE
     Coordinates (X,Y,Z):    1.000000E-03    1.000000E-03    1.100000E-01
     TEMPORAL STATISTIC: RUNNING AVERAGE
  Property ID: TC
  12 ID: TC_CL
     QUANTITY: THERMOCOUPLE
     Coordinates (X,Y,Z):    1.000000E-03    1.000000E-03    1.300000E-01
     TEMPORAL STATISTIC: RUNNING AVERAGE
  Property ID: TC
  13 ID: TC_CL
     QUANTITY: THERMOCOUPLE
     Coordinates (X,Y,Z):    1.000000E-03    1.000000E-03    1.500000E-01
     TEMPORAL STATISTIC: RUNNING AVERAGE
  Property ID: TC
  14 ID: TC_CL
     QUANTITY: THERMOCOUPLE
     Coordinates (X,Y,Z):    1.000000E-03    1.000000E-03    1.700000E-01
     TEMPORAL STATISTIC: RUNNING AVERAGE
  Property ID: TC
  15 ID: TC_CL
     QUANTITY: THERMOCOUPLE
     Coordinates (X,Y,Z):    1.000000E-03    1.000000E-03    1.900000E-01
     TEMPORAL STATISTIC: RUNNING AVERAGE
  Property ID: TC
  16 ID: TC_CL
     QUANTITY: THERMOCOUPLE
     Coordinates (X,Y,Z):    1.000000E-03    1.000000E-03    2.100000E-01
     TEMPORAL STATISTIC: RUNNING AVERAGE
  Property ID: TC
  17 ID: TC_CL
     QUANTITY: THERMOCOUPLE
     Coordinates (X,Y,Z):    1.000000E-03    1.000000E-03    2.300000E-01
     TEMPORAL STATISTIC: RUNNING AVERAGE
  Property ID: TC
  18 ID: TC_CL
     QUANTITY: THERMOCOUPLE
     Coordinates (X,Y,Z):    1.000000E-03    1.000000E-03    2.500000E-01
     TEMPORAL STATISTIC: RUNNING AVERAGE
  Property ID: TC
  19 ID: TC_CL
     QUANTITY: THERMOCOUPLE
     Coordinates (X,Y,Z):    1.000000E-03    1.000000E-03    2.700000E-01
     TEMPORAL STATISTIC: RUNNING AVERAGE
  Property ID: TC
  20 ID: TC_CL
     QUANTITY: THERMOCOUPLE
     Coordinates (X,Y,Z):    1.000000E-03    1.000000E-03    2.900000E-01
     TEMPORAL STATISTIC: RUNNING AVERAGE
  Property ID: TC
  21 ID: TC_CL
     QUANTITY: THERMOCOUPLE
     Coordinates (X,Y,Z):    1.000000E-03    1.000000E-03    3.100000E-01
     TEMPORAL STATISTIC: RUNNING AVERAGE
  Property ID: TC
  22 ID: TC_CL
     QUANTITY: THERMOCOUPLE
     Coordinates (X,Y,Z):    1.000000E-03    1.000000E-03    3.300000E-01
     TEMPORAL STATISTIC: RUNNING AVERAGE
  Property ID: TC
  23 ID: TC_CL
     QUANTITY: THERMOCOUPLE
     Coordinates (X,Y,Z):    1.000000E-03    1.000000E-03    3.500000E-01
     TEMPORAL STATISTIC: RUNNING AVERAGE
  Property ID: TC
  24 ID: TC_CL
     QUANTITY: THERMOCOUPLE
     Coordinates (X,Y,Z):    1.000000E-03    1.000000E-03    3.700000E-01
     TEMPORAL STATISTIC: RUNNING AVERAGE
  Property ID: TC
  25 ID: TC_CL
     QUANTITY: THERMOCOUPLE
     Coordinates (X,Y,Z):    1.000000E-03    1.000000E-03    3.900000E-01
     TEMPORAL STATISTIC: RUNNING AVERAGE
  Property ID: TC
  26 ID: TC_CL
     QUANTITY: THERMOCOUPLE
     Coordinates (X,Y,Z):    1.000000E-03    1.000000E-03    4.100000E-01
     TEMPORAL STATISTIC: RUNNING AVERAGE
  Property ID: TC
  27 ID: TC_CL
     QUANTITY: THERMOCOUPLE
     Coordinates (X,Y,Z):    1.000000E-03    1.000000E-03    4.300000E-01
     TEMPORAL STATISTIC: RUNNING AVERAGE
  Property ID: TC
  28 ID: TC_CL
     QUANTITY: THERMOCOUPLE
     Coordinates (X,Y,Z):    1.000000E-03    1.000000E-03    4.500000E-01
     TEMPORAL STATISTIC: RUNNING AVERAGE
  Property ID: TC
  29 ID: TC_CL
     QUANTITY: THERMOCOUPLE
     Coordinates (X,Y,Z):    1.000000E-03    1.000000E-03    4.700000E-01
     TEMPORAL STATISTIC: RUNNING AVERAGE
  Property ID: TC
  30 ID: TC_CL
     QUANTITY: THERMOCOUPLE
     Coordinates (X,Y,Z):    1.000000E-03    1.000000E-03    4.900000E-01
     TEMPORAL STATISTIC: RUNNING AVERAGE
  Property ID: TC
  31 ID: TC_CL
     QUANTITY: THERMOCOUPLE
     Coordinates (X,Y,Z):    1.000000E-03    1.000000E-03    5.100000E-01
     TEMPORAL STATISTIC: RUNNING AVERAGE
  Property ID: TC
  32 ID: TC_CL
     QUANTITY: THERMOCOUPLE
     Coordinates (X,Y,Z):    1.000000E-03    1.000000E-03    5.300000E-01
     TEMPORAL STATISTIC: RUNNING AVERAGE
  Property ID: TC
  33 ID: TC_CL
     QUANTITY: THERMOCOUPLE
     Coordinates (X,Y,Z):    1.000000E-03    1.000000E-03    5.500000E-01
     TEMPORAL STATISTIC: RUNNING AVERAGE
  Property ID: TC
  34 ID: TC_CL
     QUANTITY: THERMOCOUPLE
     Coordinates (X,Y,Z):    1.000000E-03    1.000000E-03    5.700000E-01
     TEMPORAL STATISTIC: RUNNING AVERAGE
  Property ID: TC
  35 ID: TC_CL
     QUANTITY: THERMOCOUPLE
     Coordinates (X,Y,Z):    1.000000E-03    1.000000E-03    5.900000E-01
     TEMPORAL STATISTIC: RUNNING AVERAGE
  Property ID: TC
  36 ID: TC_CL
     QUANTITY: THERMOCOUPLE
     Coordinates (X,Y,Z):    1.000000E-03    1.000000E-03    6.100000E-01
     TEMPORAL STATISTIC: RUNNING AVERAGE
  Property ID: TC
  37 ID: TC_CL
     QUANTITY: THERMOCOUPLE
     Coordinates (X,Y,Z):    1.000000E-03    1.000000E-03    6.300000E-01
     TEMPORAL STATISTIC: RUNNING AVERAGE
  Property ID: TC
  38 ID: TC_CL
     QUANTITY: THERMOCOUPLE
     Coordinates (X,Y,Z):    1.000000E-03    1.000000E-03    6.500000E-01
     TEMPORAL STATISTIC: RUNNING AVERAGE
  Property ID: TC
  39 ID: TC_CL
     QUANTITY: THERMOCOUPLE
     Coordinates (X,Y,Z):    1.000000E-03    1.000000E-03    6.700000E-01
     TEMPORAL STATISTIC: RUNNING AVERAGE
  Property ID: TC
  40 ID: TC_CL
     QUANTITY: THERMOCOUPLE
     Coordinates (X,Y,Z):    1.000000E-03    1.000000E-03    6.900000E-01
     TEMPORAL STATISTIC: RUNNING AVERAGE
  Property ID: TC
  41 ID: TC_CL
     QUANTITY: THERMOCOUPLE
     Coordinates (X,Y,Z):    1.000000E-03    1.000000E-03    7.100000E-01
     TEMPORAL STATISTIC: RUNNING AVERAGE
  Property ID: TC
  42 ID: TC_CL
     QUANTITY: THERMOCOUPLE
     Coordinates (X,Y,Z):    1.000000E-03    1.000000E-03    7.300000E-01
     TEMPORAL STATISTIC: RUNNING AVERAGE
  Property ID: TC
  43 ID: TC_CL
     QUANTITY: THERMOCOUPLE
     Coordinates (X,Y,Z):    1.000000E-03    1.000000E-03    7.500000E-01
     TEMPORAL STATISTIC: RUNNING AVERAGE
  Property ID: TC
  44 ID: TC_CL
     QUANTITY: THERMOCOUPLE
     Coordinates (X,Y,Z):    1.000000E-03    1.000000E-03    7.700000E-01
     TEMPORAL STATISTIC: RUNNING AVERAGE
  Property ID: TC
  45 ID: TC_CL
     QUANTITY: THERMOCOUPLE
     Coordinates (X,Y,Z):    1.000000E-03    1.000000E-03    7.900000E-01
     TEMPORAL STATISTIC: RUNNING AVERAGE
  Property ID: TC
  46 ID: TC_CL
     QUANTITY: THERMOCOUPLE
     Coordinates (X,Y,Z):    1.000000E-03    1.000000E-03    8.100000E-01
     TEMPORAL STATISTIC: RUNNING AVERAGE
  Property ID: TC
  47 ID: TC_CL
     QUANTITY: THERMOCOUPLE
     Coordinates (X,Y,Z):    1.000000E-03    1.000000E-03    8.300000E-01
     TEMPORAL STATISTIC: RUNNING AVERAGE
  Property ID: TC
  48 ID: TC_CL
     QUANTITY: THERMOCOUPLE
     Coordinates (X,Y,Z):    1.000000E-03    1.000000E-03    8.500000E-01
     TEMPORAL STATISTIC: RUNNING AVERAGE
  Property ID: TC
  49 ID: TC_CL
     QUANTITY: THERMOCOUPLE
     Coordinates (X,Y,Z):    1.000000E-03    1.000000E-03    8.700000E-01
     TEMPORAL STATISTIC: RUNNING AVERAGE
  Property ID: TC
  50 ID: TC_CL
     QUANTITY: THERMOCOUPLE
     Coordinates (X,Y,Z):    1.000000E-03    1.000000E-03    8.900000E-01
     TEMPORAL STATISTIC: RUNNING AVERAGE
  Property ID: TC
  51 ID: TC_CL
     QUANTITY: THERMOCOUPLE
     Coordinates (X,Y,Z):    1.000000E-03    1.000000E-03    9.100000E-01
     TEMPORAL STATISTIC: RUNNING AVERAGE
  Property ID: TC
  52 ID: TC_CL
     QUANTITY: THERMOCOUPLE
     Coordinates (X,Y,Z):    1.000000E-03    1.000000E-03    9.300000E-01
     TEMPORAL STATISTIC: RUNNING AVERAGE
  Property ID: TC
  53 ID: TC_CL
     QUANTITY: THERMOCOUPLE
     Coordinates (X,Y,Z):    1.000000E-03    1.000000E-03    9.500000E-01
     TEMPORAL STATISTIC: RUNNING AVERAGE
  Property ID: TC
  54 ID: TC_CL
     QUANTITY: THERMOCOUPLE
     Coordinates (X,Y,Z):    1.000000E-03    1.000000E-03    9.700000E-01
     TEMPORAL STATISTIC: RUNNING AVERAGE
  Property ID: TC
  55 ID: TC_CL
     QUANTITY: THERMOCOUPLE
     Coordinates (X,Y,Z):    1.000000E-03    1.000000E-03    9.900000E-01
     TEMPORAL STATISTIC: RUNNING AVERAGE
  Property ID: TC
  56 ID: TG_CL
     QUANTITY: TEMPERATURE
     Coordinates (X,Y,Z):    1.000000E-03    1.000000E-03    1.000000E-02
     TEMPORAL STATISTIC: RUNNING AVERAGE
  57 ID: TG_CL
     QUANTITY: TEMPERATURE
     Coordinates (X,Y,Z):    1.000000E-03    1.000000E-03    3.000000E-02
     TEMPORAL STATISTIC: RUNNING AVERAGE
  58 ID: TG_CL
     QUANTITY: TEMPERATURE
     Coordinates (X,Y,Z):    1.000000E-03    1.000000E-03    5.000000E-02
     TEMPORAL STATISTIC: RUNNING AVERAGE
  59 ID: TG_CL
     QUANTITY: TEMPERATURE
     Coordinates (X,Y,Z):    1.000000E-03    1.000000E-03    7.000000E-02
     TEMPORAL STATISTIC: RUNNING AVERAGE
  60 ID: TG_CL
     QUANTITY: TEMPERATURE
     Coordinates (X,Y,Z):    1.000000E-03    1.000000E-03    9.000000E-02
     TEMPORAL STATISTIC: RUNNING AVERAGE
  61 ID: TG_CL
     QUANTITY: TEMPERATURE
     Coordinates (X,Y,Z):    1.000000E-03    1.000000E-03    1.100000E-01
     TEMPORAL STATISTIC: RUNNING AVERAGE
  62 ID: TG_CL
     QUANTITY: TEMPERATURE
     Coordinates (X,Y,Z):    1.000000E-03    1.000000E-03    1.300000E-01
     TEMPORAL STATISTIC: RUNNING AVERAGE
  63 ID: TG_CL
     QUANTITY: TEMPERATURE
     Coordinates (X,Y,Z):    1.000000E-03    1.000000E-03    1.500000E-01
     TEMPORAL STATISTIC: RUNNING AVERAGE
  64 ID: TG_CL
     QUANTITY: TEMPERATURE
     Coordinates (X,Y,Z):    1.000000E-03    1.000000E-03    1.700000E-01
     TEMPORAL STATISTIC: RUNNING AVERAGE
  65 ID: TG_CL
     QUANTITY: TEMPERATURE
     Coordinates (X,Y,Z):    1.000000E-03    1.000000E-03    1.900000E-01
     TEMPORAL STATISTIC: RUNNING AVERAGE
  66 ID: TG_CL
     QUANTITY: TEMPERATURE
     Coordinates (X,Y,Z):    1.000000E-03    1.000000E-03    2.100000E-01
     TEMPORAL STATISTIC: RUNNING AVERAGE
  67 ID: TG_CL
     QUANTITY: TEMPERATURE
     Coordinates (X,Y,Z):    1.000000E-03    1.000000E-03    2.300000E-01
     TEMPORAL STATISTIC: RUNNING AVERAGE
  68 ID: TG_CL
     QUANTITY: TEMPERATURE
     Coordinates (X,Y,Z):    1.000000E-03    1.000000E-03    2.500000E-01
     TEMPORAL STATISTIC: RUNNING AVERAGE
  69 ID: TG_CL
     QUANTITY: TEMPERATURE
     Coordinates (X,Y,Z):    1.000000E-03    1.000000E-03    2.700000E-01
     TEMPORAL STATISTIC: RUNNING AVERAGE
  70 ID: TG_CL
     QUANTITY: TEMPERATURE
     Coordinates (X,Y,Z):    1.000000E-03    1.000000E-03    2.900000E-01
     TEMPORAL STATISTIC: RUNNING AVERAGE
  71 ID: TG_CL
     QUANTITY: TEMPERATURE
     Coordinates (X,Y,Z):    1.000000E-03    1.000000E-03    3.100000E-01
     TEMPORAL STATISTIC: RUNNING AVERAGE
  72 ID: TG_CL
     QUANTITY: TEMPERATURE
     Coordinates (X,Y,Z):    1.000000E-03    1.000000E-03    3.300000E-01
     TEMPORAL STATISTIC: RUNNING AVERAGE
  73 ID: TG_CL
     QUANTITY: TEMPERATURE
     Coordinates (X,Y,Z):    1.000000E-03    1.000000E-03    3.500000E-01
     TEMPORAL STATISTIC: RUNNING AVERAGE
  74 ID: TG_CL
     QUANTITY: TEMPERATURE
     Coordinates (X,Y,Z):    1.000000E-03    1.000000E-03    3.700000E-01
     TEMPORAL STATISTIC: RUNNING AVERAGE
  75 ID: TG_CL
     QUANTITY: TEMPERATURE
     Coordinates (X,Y,Z):    1.000000E-03    1.000000E-03    3.900000E-01
     TEMPORAL STATISTIC: RUNNING AVERAGE
  76 ID: TG_CL
     QUANTITY: TEMPERATURE
     Coordinates (X,Y,Z):    1.000000E-03    1.000000E-03    4.100000E-01
     TEMPORAL STATISTIC: RUNNING AVERAGE
  77 ID: TG_CL
     QUANTITY: TEMPERATURE
     Coordinates (X,Y,Z):    1.000000E-03    1.000000E-03    4.300000E-01
     TEMPORAL STATISTIC: RUNNING AVERAGE
  78 ID: TG_CL
     QUANTITY: TEMPERATURE
     Coordinates (X,Y,Z):    1.000000E-03    1.000000E-03    4.500000E-01
     TEMPORAL STATISTIC: RUNNING AVERAGE
  79 ID: TG_CL
     QUANTITY: TEMPERATURE
     Coordinates (X,Y,Z):    1.000000E-03    1.000000E-03    4.700000E-01
     TEMPORAL STATISTIC: RUNNING AVERAGE
  80 ID: TG_CL
     QUANTITY: TEMPERATURE
     Coordinates (X,Y,Z):    1.000000E-03    1.000000E-03    4.900000E-01
     TEMPORAL STATISTIC: RUNNING AVERAGE
  81 ID: TG_CL
     QUANTITY: TEMPERATURE
     Coordinates (X,Y,Z):    1.000000E-03    1.000000E-03    5.100000E-01
     TEMPORAL STATISTIC: RUNNING AVERAGE
  82 ID: TG_CL
     QUANTITY: TEMPERATURE
     Coordinates (X,Y,Z):    1.000000E-03    1.000000E-03    5.300000E-01
     TEMPORAL STATISTIC: RUNNING AVERAGE
  83 ID: TG_CL
     QUANTITY: TEMPERATURE
     Coordinates (X,Y,Z):    1.000000E-03    1.000000E-03    5.500000E-01
     TEMPORAL STATISTIC: RUNNING AVERAGE
  84 ID: TG_CL
     QUANTITY: TEMPERATURE
     Coordinates (X,Y,Z):    1.000000E-03    1.000000E-03    5.700000E-01
     TEMPORAL STATISTIC: RUNNING AVERAGE
  85 ID: TG_CL
     QUANTITY: TEMPERATURE
     Coordinates (X,Y,Z):    1.000000E-03    1.000000E-03    5.900000E-01
     TEMPORAL STATISTIC: RUNNING AVERAGE
  86 ID: TG_CL
     QUANTITY: TEMPERATURE
     Coordinates (X,Y,Z):    1.000000E-03    1.000000E-03    6.100000E-01
     TEMPORAL STATISTIC: RUNNING AVERAGE
  87 ID: TG_CL
     QUANTITY: TEMPERATURE
     Coordinates (X,Y,Z):    1.000000E-03    1.000000E-03    6.300000E-01
     TEMPORAL STATISTIC: RUNNING AVERAGE
  88 ID: TG_CL
     QUANTITY: TEMPERATURE
     Coordinates (X,Y,Z):    1.000000E-03    1.000000E-03    6.500000E-01
     TEMPORAL STATISTIC: RUNNING AVERAGE
  89 ID: TG_CL
     QUANTITY: TEMPERATURE
     Coordinates (X,Y,Z):    1.000000E-03    1.000000E-03    6.700000E-01
     TEMPORAL STATISTIC: RUNNING AVERAGE
  90 ID: TG_CL
     QUANTITY: TEMPERATURE
     Coordinates (X,Y,Z):    1.000000E-03    1.000000E-03    6.900000E-01
     TEMPORAL STATISTIC: RUNNING AVERAGE
  91 ID: TG_CL
     QUANTITY: TEMPERATURE
     Coordinates (X,Y,Z):    1.000000E-03    1.000000E-03    7.100000E-01
     TEMPORAL STATISTIC: RUNNING AVERAGE
  92 ID: TG_CL
     QUANTITY: TEMPERATURE
     Coordinates (X,Y,Z):    1.000000E-03    1.000000E-03    7.300000E-01
     TEMPORAL STATISTIC: RUNNING AVERAGE
  93 ID: TG_CL
     QUANTITY: TEMPERATURE
     Coordinates (X,Y,Z):    1.000000E-03    1.000000E-03    7.500000E-01
     TEMPORAL STATISTIC: RUNNING AVERAGE
  94 ID: TG_CL
     QUANTITY: TEMPERATURE
     Coordinates (X,Y,Z):    1.000000E-03    1.000000E-03    7.700000E-01
     TEMPORAL STATISTIC: RUNNING AVERAGE
  95 ID: TG_CL
     QUANTITY: TEMPERATURE
     Coordinates (X,Y,Z):    1.000000E-03    1.000000E-03    7.900000E-01
     TEMPORAL STATISTIC: RUNNING AVERAGE
  96 ID: TG_CL
     QUANTITY: TEMPERATURE
     Coordinates (X,Y,Z):    1.000000E-03    1.000000E-03    8.100000E-01
     TEMPORAL STATISTIC: RUNNING AVERAGE
  97 ID: TG_CL
     QUANTITY: TEMPERATURE
     Coordinates (X,Y,Z):    1.000000E-03    1.000000E-03    8.300000E-01
     TEMPORAL STATISTIC: RUNNING AVERAGE
  98 ID: TG_CL
     QUANTITY: TEMPERATURE
     Coordinates (X,Y,Z):    1.000000E-03    1.000000E-03    8.500000E-01
     TEMPORAL STATISTIC: RUNNING AVERAGE
  99 ID: TG_CL
     QUANTITY: TEMPERATURE
     Coordinates (X,Y,Z):    1.000000E-03    1.000000E-03    8.700000E-01
     TEMPORAL STATISTIC: RUNNING AVERAGE
 100 ID: TG_CL
     QUANTITY: TEMPERATURE
     Coordinates (X,Y,Z):    1.000000E-03    1.000000E-03    8.900000E-01
     TEMPORAL STATISTIC: RUNNING AVERAGE
 101 ID: TG_CL
     QUANTITY: TEMPERATURE
     Coordinates (X,Y,Z):    1.000000E-03    1.000000E-03    9.100000E-01
     TEMPORAL STATISTIC: RUNNING AVERAGE
 102 ID: TG_CL
     QUANTITY: TEMPERATURE
     Coordinates (X,Y,Z):    1.000000E-03    1.000000E-03    9.300000E-01
     TEMPORAL STATISTIC: RUNNING AVERAGE
 103 ID: TG_CL
     QUANTITY: TEMPERATURE
     Coordinates (X,Y,Z):    1.000000E-03    1.000000E-03    9.500000E-01
     TEMPORAL STATISTIC: RUNNING AVERAGE
 104 ID: TG_CL
     QUANTITY: TEMPERATURE
     Coordinates (X,Y,Z):    1.000000E-03    1.000000E-03    9.700000E-01
     TEMPORAL STATISTIC: RUNNING AVERAGE
 105 ID: TG_CL
     QUANTITY: TEMPERATURE
     Coordinates (X,Y,Z):    1.000000E-03    1.000000E-03    9.900000E-01
     TEMPORAL STATISTIC: RUNNING AVERAGE
 106 ID: w_CL
     QUANTITY: W-VELOCITY
     Coordinates (X,Y,Z):    1.000000E-03    1.000000E-03    1.000000E-02
     TEMPORAL STATISTIC: RUNNING AVERAGE
 107 ID: w_CL
     QUANTITY: W-VELOCITY
     Coordinates (X,Y,Z):    1.000000E-03    1.000000E-03    3.000000E-02
     TEMPORAL STATISTIC: RUNNING AVERAGE
 108 ID: w_CL
     QUANTITY: W-VELOCITY
     Coordinates (X,Y,Z):    1.000000E-03    1.000000E-03    5.000000E-02
     TEMPORAL STATISTIC: RUNNING AVERAGE
 109 ID: w_CL
     QUANTITY: W-VELOCITY
     Coordinates (X,Y,Z):    1.000000E-03    1.000000E-03    7.000000E-02
     TEMPORAL STATISTIC: RUNNING AVERAGE
 110 ID: w_CL
     QUANTITY: W-VELOCITY
     Coordinates (X,Y,Z):    1.000000E-03    1.000000E-03    9.000000E-02
     TEMPORAL STATISTIC: RUNNING AVERAGE
 111 ID: w_CL
     QUANTITY: W-VELOCITY
     Coordinates (X,Y,Z):    1.000000E-03    1.000000E-03    1.100000E-01
     TEMPORAL STATISTIC: RUNNING AVERAGE
 112 ID: w_CL
     QUANTITY: W-VELOCITY
     Coordinates (X,Y,Z):    1.000000E-03    1.000000E-03    1.300000E-01
     TEMPORAL STATISTIC: RUNNING AVERAGE
 113 ID: w_CL
     QUANTITY: W-VELOCITY
     Coordinates (X,Y,Z):    1.000000E-03    1.000000E-03    1.500000E-01
     TEMPORAL STATISTIC: RUNNING AVERAGE
 114 ID: w_CL
     QUANTITY: W-VELOCITY
     Coordinates (X,Y,Z):    1.000000E-03    1.000000E-03    1.700000E-01
     TEMPORAL STATISTIC: RUNNING AVERAGE
 115 ID: w_CL
     QUANTITY: W-VELOCITY
     Coordinates (X,Y,Z):    1.000000E-03    1.000000E-03    1.900000E-01
     TEMPORAL STATISTIC: RUNNING AVERAGE
 116 ID: w_CL
     QUANTITY: W-VELOCITY
     Coordinates (X,Y,Z):    1.000000E-03    1.000000E-03    2.100000E-01
     TEMPORAL STATISTIC: RUNNING AVERAGE
 117 ID: w_CL
     QUANTITY: W-VELOCITY
     Coordinates (X,Y,Z):    1.000000E-03    1.000000E-03    2.300000E-01
     TEMPORAL STATISTIC: RUNNING AVERAGE
 118 ID: w_CL
     QUANTITY: W-VELOCITY
     Coordinates (X,Y,Z):    1.000000E-03    1.000000E-03    2.500000E-01
     TEMPORAL STATISTIC: RUNNING AVERAGE
 119 ID: w_CL
     QUANTITY: W-VELOCITY
     Coordinates (X,Y,Z):    1.000000E-03    1.000000E-03    2.700000E-01
     TEMPORAL STATISTIC: RUNNING AVERAGE
 120 ID: w_CL
     QUANTITY: W-VELOCITY
     Coordinates (X,Y,Z):    1.000000E-03    1.000000E-03    2.900000E-01
     TEMPORAL STATISTIC: RUNNING AVERAGE
 121 ID: w_CL
     QUANTITY: W-VELOCITY
     Coordinates (X,Y,Z):    1.000000E-03    1.000000E-03    3.100000E-01
     TEMPORAL STATISTIC: RUNNING AVERAGE
 122 ID: w_CL
     QUANTITY: W-VELOCITY
     Coordinates (X,Y,Z):    1.000000E-03    1.000000E-03    3.300000E-01
     TEMPORAL STATISTIC: RUNNING AVERAGE
 123 ID: w_CL
     QUANTITY: W-VELOCITY
     Coordinates (X,Y,Z):    1.000000E-03    1.000000E-03    3.500000E-01
     TEMPORAL STATISTIC: RUNNING AVERAGE
 124 ID: w_CL
     QUANTITY: W-VELOCITY
     Coordinates (X,Y,Z):    1.000000E-03    1.000000E-03    3.700000E-01
     TEMPORAL STATISTIC: RUNNING AVERAGE
 125 ID: w_CL
     QUANTITY: W-VELOCITY
     Coordinates (X,Y,Z):    1.000000E-03    1.000000E-03    3.900000E-01
     TEMPORAL STATISTIC: RUNNING AVERAGE
 126 ID: w_CL
     QUANTITY: W-VELOCITY
     Coordinates (X,Y,Z):    1.000000E-03    1.000000E-03    4.100000E-01
     TEMPORAL STATISTIC: RUNNING AVERAGE
 127 ID: w_CL
     QUANTITY: W-VELOCITY
     Coordinates (X,Y,Z):    1.000000E-03    1.000000E-03    4.300000E-01
     TEMPORAL STATISTIC: RUNNING AVERAGE
 128 ID: w_CL
     QUANTITY: W-VELOCITY
     Coordinates (X,Y,Z):    1.000000E-03    1.000000E-03    4.500000E-01
     TEMPORAL STATISTIC: RUNNING AVERAGE
 129 ID: w_CL
     QUANTITY: W-VELOCITY
     Coordinates (X,Y,Z):    1.000000E-03    1.000000E-03    4.700000E-01
     TEMPORAL STATISTIC: RUNNING AVERAGE
 130 ID: w_CL
     QUANTITY: W-VELOCITY
     Coordinates (X,Y,Z):    1.000000E-03    1.000000E-03    4.900000E-01
     TEMPORAL STATISTIC: RUNNING AVERAGE
 131 ID: w_CL
     QUANTITY: W-VELOCITY
     Coordinates (X,Y,Z):    1.000000E-03    1.000000E-03    5.100000E-01
     TEMPORAL STATISTIC: RUNNING AVERAGE
 132 ID: w_CL
     QUANTITY: W-VELOCITY
     Coordinates (X,Y,Z):    1.000000E-03    1.000000E-03    5.300000E-01
     TEMPORAL STATISTIC: RUNNING AVERAGE
 133 ID: w_CL
     QUANTITY: W-VELOCITY
     Coordinates (X,Y,Z):    1.000000E-03    1.000000E-03    5.500000E-01
     TEMPORAL STATISTIC: RUNNING AVERAGE
 134 ID: w_CL
     QUANTITY: W-VELOCITY
     Coordinates (X,Y,Z):    1.000000E-03    1.000000E-03    5.700000E-01
     TEMPORAL STATISTIC: RUNNING AVERAGE
 135 ID: w_CL
     QUANTITY: W-VELOCITY
     Coordinates (X,Y,Z):    1.000000E-03    1.000000E-03    5.900000E-01
     TEMPORAL STATISTIC: RUNNING AVERAGE
 136 ID: w_CL
     QUANTITY: W-VELOCITY
     Coordinates (X,Y,Z):    1.000000E-03    1.000000E-03    6.100000E-01
     TEMPORAL STATISTIC: RUNNING AVERAGE
 137 ID: w_CL
     QUANTITY: W-VELOCITY
     Coordinates (X,Y,Z):    1.000000E-03    1.000000E-03    6.300000E-01
     TEMPORAL STATISTIC: RUNNING AVERAGE
 138 ID: w_CL
     QUANTITY: W-VELOCITY
     Coordinates (X,Y,Z):    1.000000E-03    1.000000E-03    6.500000E-01
     TEMPORAL STATISTIC: RUNNING AVERAGE
 139 ID: w_CL
     QUANTITY: W-VELOCITY
     Coordinates (X,Y,Z):    1.000000E-03    1.000000E-03    6.700000E-01
     TEMPORAL STATISTIC: RUNNING AVERAGE
 140 ID: w_CL
     QUANTITY: W-VELOCITY
     Coordinates (X,Y,Z):    1.000000E-03    1.000000E-03    6.900000E-01
     TEMPORAL STATISTIC: RUNNING AVERAGE
 141 ID: w_CL
     QUANTITY: W-VELOCITY
     Coordinates (X,Y,Z):    1.000000E-03    1.000000E-03    7.100000E-01
     TEMPORAL STATISTIC: RUNNING AVERAGE
 142 ID: w_CL
     QUANTITY: W-VELOCITY
     Coordinates (X,Y,Z):    1.000000E-03    1.000000E-03    7.300000E-01
     TEMPORAL STATISTIC: RUNNING AVERAGE
 143 ID: w_CL
     QUANTITY: W-VELOCITY
     Coordinates (X,Y,Z):    1.000000E-03    1.000000E-03    7.500000E-01
     TEMPORAL STATISTIC: RUNNING AVERAGE
 144 ID: w_CL
     QUANTITY: W-VELOCITY
     Coordinates (X,Y,Z):    1.000000E-03    1.000000E-03    7.700000E-01
     TEMPORAL STATISTIC: RUNNING AVERAGE
 145 ID: w_CL
     QUANTITY: W-VELOCITY
     Coordinates (X,Y,Z):    1.000000E-03    1.000000E-03    7.900000E-01
     TEMPORAL STATISTIC: RUNNING AVERAGE
 146 ID: w_CL
     QUANTITY: W-VELOCITY
     Coordinates (X,Y,Z):    1.000000E-03    1.000000E-03    8.100000E-01
     TEMPORAL STATISTIC: RUNNING AVERAGE
 147 ID: w_CL
     QUANTITY: W-VELOCITY
     Coordinates (X,Y,Z):    1.000000E-03    1.000000E-03    8.300000E-01
     TEMPORAL STATISTIC: RUNNING AVERAGE
 148 ID: w_CL
     QUANTITY: W-VELOCITY
     Coordinates (X,Y,Z):    1.000000E-03    1.000000E-03    8.500000E-01
     TEMPORAL STATISTIC: RUNNING AVERAGE
 149 ID: w_CL
     QUANTITY: W-VELOCITY
     Coordinates (X,Y,Z):    1.000000E-03    1.000000E-03    8.700000E-01
     TEMPORAL STATISTIC: RUNNING AVERAGE
 150 ID: w_CL
     QUANTITY: W-VELOCITY
     Coordinates (X,Y,Z):    1.000000E-03    1.000000E-03    8.900000E-01
     TEMPORAL STATISTIC: RUNNING AVERAGE
 151 ID: w_CL
     QUANTITY: W-VELOCITY
     Coordinates (X,Y,Z):    1.000000E-03    1.000000E-03    9.100000E-01
     TEMPORAL STATISTIC: RUNNING AVERAGE
 152 ID: w_CL
     QUANTITY: W-VELOCITY
     Coordinates (X,Y,Z):    1.000000E-03    1.000000E-03    9.300000E-01
     TEMPORAL STATISTIC: RUNNING AVERAGE
 153 ID: w_CL
     QUANTITY: W-VELOCITY
     Coordinates (X,Y,Z):    1.000000E-03    1.000000E-03    9.500000E-01
     TEMPORAL STATISTIC: RUNNING AVERAGE
 154 ID: w_CL
     QUANTITY: W-VELOCITY
     Coordinates (X,Y,Z):    1.000000E-03    1.000000E-03    9.700000E-01
     TEMPORAL STATISTIC: RUNNING AVERAGE
 155 ID: w_CL
     QUANTITY: W-VELOCITY
     Coordinates (X,Y,Z):    1.000000E-03    1.000000E-03    9.900000E-01
     TEMPORAL STATISTIC: RUNNING AVERAGE
 156 ID: TC_CL_RMS
     QUANTITY: THERMOCOUPLE
     Coordinates (X,Y,Z):    1.000000E-03    1.000000E-03    1.000000E-02
     TEMPORAL STATISTIC: RMS
  Property ID: TC
 157 ID: TC_CL_RMS
     QUANTITY: THERMOCOUPLE
     Coordinates (X,Y,Z):    1.000000E-03    1.000000E-03    3.000000E-02
     TEMPORAL STATISTIC: RMS
  Property ID: TC
 158 ID: TC_CL_RMS
     QUANTITY: THERMOCOUPLE
     Coordinates (X,Y,Z):    1.000000E-03    1.000000E-03    5.000000E-02
     TEMPORAL STATISTIC: RMS
  Property ID: TC
 159 ID: TC_CL_RMS
     QUANTITY: THERMOCOUPLE
     Coordinates (X,Y,Z):    1.000000E-03    1.000000E-03    7.000000E-02
     TEMPORAL STATISTIC: RMS
  Property ID: TC
 160 ID: TC_CL_RMS
     QUANTITY: THERMOCOUPLE
     Coordinates (X,Y,Z):    1.000000E-03    1.000000E-03    9.000000E-02
     TEMPORAL STATISTIC: RMS
  Property ID: TC
 161 ID: TC_CL_RMS
     QUANTITY: THERMOCOUPLE
     Coordinates (X,Y,Z):    1.000000E-03    1.000000E-03    1.100000E-01
     TEMPORAL STATISTIC: RMS
  Property ID: TC
 162 ID: TC_CL_RMS
     QUANTITY: THERMOCOUPLE
     Coordinates (X,Y,Z):    1.000000E-03    1.000000E-03    1.300000E-01
     TEMPORAL STATISTIC: RMS
  Property ID: TC
 163 ID: TC_CL_RMS
     QUANTITY: THERMOCOUPLE
     Coordinates (X,Y,Z):    1.000000E-03    1.000000E-03    1.500000E-01
     TEMPORAL STATISTIC: RMS
  Property ID: TC
 164 ID: TC_CL_RMS
     QUANTITY: THERMOCOUPLE
     Coordinates (X,Y,Z):    1.000000E-03    1.000000E-03    1.700000E-01
     TEMPORAL STATISTIC: RMS
  Property ID: TC
 165 ID: TC_CL_RMS
     QUANTITY: THERMOCOUPLE
     Coordinates (X,Y,Z):    1.000000E-03    1.000000E-03    1.900000E-01
     TEMPORAL STATISTIC: RMS
  Property ID: TC
 166 ID: TC_CL_RMS
     QUANTITY: THERMOCOUPLE
     Coordinates (X,Y,Z):    1.000000E-03    1.000000E-03    2.100000E-01
     TEMPORAL STATISTIC: RMS
  Property ID: TC
 167 ID: TC_CL_RMS
     QUANTITY: THERMOCOUPLE
     Coordinates (X,Y,Z):    1.000000E-03    1.000000E-03    2.300000E-01
     TEMPORAL STATISTIC: RMS
  Property ID: TC
 168 ID: TC_CL_RMS
     QUANTITY: THERMOCOUPLE
     Coordinates (X,Y,Z):    1.000000E-03    1.000000E-03    2.500000E-01
     TEMPORAL STATISTIC: RMS
  Property ID: TC
 169 ID: TC_CL_RMS
     QUANTITY: THERMOCOUPLE
     Coordinates (X,Y,Z):    1.000000E-03    1.000000E-03    2.700000E-01
     TEMPORAL STATISTIC: RMS
  Property ID: TC
 170 ID: TC_CL_RMS
     QUANTITY: THERMOCOUPLE
     Coordinates (X,Y,Z):    1.000000E-03    1.000000E-03    2.900000E-01
     TEMPORAL STATISTIC: RMS
  Property ID: TC
 171 ID: TC_CL_RMS
     QUANTITY: THERMOCOUPLE
     Coordinates (X,Y,Z):    1.000000E-03    1.000000E-03    3.100000E-01
     TEMPORAL STATISTIC: RMS
  Property ID: TC
 172 ID: TC_CL_RMS
     QUANTITY: THERMOCOUPLE
     Coordinates (X,Y,Z):    1.000000E-03    1.000000E-03    3.300000E-01
     TEMPORAL STATISTIC: RMS
  Property ID: TC
 173 ID: TC_CL_RMS
     QUANTITY: THERMOCOUPLE
     Coordinates (X,Y,Z):    1.000000E-03    1.000000E-03    3.500000E-01
     TEMPORAL STATISTIC: RMS
  Property ID: TC
 174 ID: TC_CL_RMS
     QUANTITY: THERMOCOUPLE
     Coordinates (X,Y,Z):    1.000000E-03    1.000000E-03    3.700000E-01
     TEMPORAL STATISTIC: RMS
  Property ID: TC
 175 ID: TC_CL_RMS
     QUANTITY: THERMOCOUPLE
     Coordinates (X,Y,Z):    1.000000E-03    1.000000E-03    3.900000E-01
     TEMPORAL STATISTIC: RMS
  Property ID: TC
 176 ID: TC_CL_RMS
     QUANTITY: THERMOCOUPLE
     Coordinates (X,Y,Z):    1.000000E-03    1.000000E-03    4.100000E-01
     TEMPORAL STATISTIC: RMS
  Property ID: TC
 177 ID: TC_CL_RMS
     QUANTITY: THERMOCOUPLE
     Coordinates (X,Y,Z):    1.000000E-03    1.000000E-03    4.300000E-01
     TEMPORAL STATISTIC: RMS
  Property ID: TC
 178 ID: TC_CL_RMS
     QUANTITY: THERMOCOUPLE
     Coordinates (X,Y,Z):    1.000000E-03    1.000000E-03    4.500000E-01
     TEMPORAL STATISTIC: RMS
  Property ID: TC
 179 ID: TC_CL_RMS
     QUANTITY: THERMOCOUPLE
     Coordinates (X,Y,Z):    1.000000E-03    1.000000E-03    4.700000E-01
     TEMPORAL STATISTIC: RMS
  Property ID: TC
 180 ID: TC_CL_RMS
     QUANTITY: THERMOCOUPLE
     Coordinates (X,Y,Z):    1.000000E-03    1.000000E-03    4.900000E-01
     TEMPORAL STATISTIC: RMS
  Property ID: TC
 181 ID: TC_CL_RMS
     QUANTITY: THERMOCOUPLE
     Coordinates (X,Y,Z):    1.000000E-03    1.000000E-03    5.100000E-01
     TEMPORAL STATISTIC: RMS
  Property ID: TC
 182 ID: TC_CL_RMS
     QUANTITY: THERMOCOUPLE
     Coordinates (X,Y,Z):    1.000000E-03    1.000000E-03    5.300000E-01
     TEMPORAL STATISTIC: RMS
  Property ID: TC
 183 ID: TC_CL_RMS
     QUANTITY: THERMOCOUPLE
     Coordinates (X,Y,Z):    1.000000E-03    1.000000E-03    5.500000E-01
     TEMPORAL STATISTIC: RMS
  Property ID: TC
 184 ID: TC_CL_RMS
     QUANTITY: THERMOCOUPLE
     Coordinates (X,Y,Z):    1.000000E-03    1.000000E-03    5.700000E-01
     TEMPORAL STATISTIC: RMS
  Property ID: TC
 185 ID: TC_CL_RMS
     QUANTITY: THERMOCOUPLE
     Coordinates (X,Y,Z):    1.000000E-03    1.000000E-03    5.900000E-01
     TEMPORAL STATISTIC: RMS
  Property ID: TC
 186 ID: TC_CL_RMS
     QUANTITY: THERMOCOUPLE
     Coordinates (X,Y,Z):    1.000000E-03    1.000000E-03    6.100000E-01
     TEMPORAL STATISTIC: RMS
  Property ID: TC
 187 ID: TC_CL_RMS
     QUANTITY: THERMOCOUPLE
     Coordinates (X,Y,Z):    1.000000E-03    1.000000E-03    6.300000E-01
     TEMPORAL STATISTIC: RMS
  Property ID: TC
 188 ID: TC_CL_RMS
     QUANTITY: THERMOCOUPLE
     Coordinates (X,Y,Z):    1.000000E-03    1.000000E-03    6.500000E-01
     TEMPORAL STATISTIC: RMS
  Property ID: TC
 189 ID: TC_CL_RMS
     QUANTITY: THERMOCOUPLE
     Coordinates (X,Y,Z):    1.000000E-03    1.000000E-03    6.700000E-01
     TEMPORAL STATISTIC: RMS
  Property ID: TC
 190 ID: TC_CL_RMS
     QUANTITY: THERMOCOUPLE
     Coordinates (X,Y,Z):    1.000000E-03    1.000000E-03    6.900000E-01
     TEMPORAL STATISTIC: RMS
  Property ID: TC
 191 ID: TC_CL_RMS
     QUANTITY: THERMOCOUPLE
     Coordinates (X,Y,Z):    1.000000E-03    1.000000E-03    7.100000E-01
     TEMPORAL STATISTIC: RMS
  Property ID: TC
 192 ID: TC_CL_RMS
     QUANTITY: THERMOCOUPLE
     Coordinates (X,Y,Z):    1.000000E-03    1.000000E-03    7.300000E-01
     TEMPORAL STATISTIC: RMS
  Property ID: TC
 193 ID: TC_CL_RMS
     QUANTITY: THERMOCOUPLE
     Coordinates (X,Y,Z):    1.000000E-03    1.000000E-03    7.500000E-01
     TEMPORAL STATISTIC: RMS
  Property ID: TC
 194 ID: TC_CL_RMS
     QUANTITY: THERMOCOUPLE
     Coordinates (X,Y,Z):    1.000000E-03    1.000000E-03    7.700000E-01
     TEMPORAL STATISTIC: RMS
  Property ID: TC
 195 ID: TC_CL_RMS
     QUANTITY: THERMOCOUPLE
     Coordinates (X,Y,Z):    1.000000E-03    1.000000E-03    7.900000E-01
     TEMPORAL STATISTIC: RMS
  Property ID: TC
 196 ID: TC_CL_RMS
     QUANTITY: THERMOCOUPLE
     Coordinates (X,Y,Z):    1.000000E-03    1.000000E-03    8.100000E-01
     TEMPORAL STATISTIC: RMS
  Property ID: TC
 197 ID: TC_CL_RMS
     QUANTITY: THERMOCOUPLE
     Coordinates (X,Y,Z):    1.000000E-03    1.000000E-03    8.300000E-01
     TEMPORAL STATISTIC: RMS
  Property ID: TC
 198 ID: TC_CL_RMS
     QUANTITY: THERMOCOUPLE
     Coordinates (X,Y,Z):    1.000000E-03    1.000000E-03    8.500000E-01
     TEMPORAL STATISTIC: RMS
  Property ID: TC
 199 ID: TC_CL_RMS
     QUANTITY: THERMOCOUPLE
     Coordinates (X,Y,Z):    1.000000E-03    1.000000E-03    8.700000E-01
     TEMPORAL STATISTIC: RMS
  Property ID: TC
 200 ID: TC_CL_RMS
     QUANTITY: THERMOCOUPLE
     Coordinates (X,Y,Z):    1.000000E-03    1.000000E-03    8.900000E-01
     TEMPORAL STATISTIC: RMS
  Property ID: TC
 201 ID: TC_CL_RMS
     QUANTITY: THERMOCOUPLE
     Coordinates (X,Y,Z):    1.000000E-03    1.000000E-03    9.100000E-01
     TEMPORAL STATISTIC: RMS
  Property ID: TC
 202 ID: TC_CL_RMS
     QUANTITY: THERMOCOUPLE
     Coordinates (X,Y,Z):    1.000000E-03    1.000000E-03    9.300000E-01
     TEMPORAL STATISTIC: RMS
  Property ID: TC
 203 ID: TC_CL_RMS
     QUANTITY: THERMOCOUPLE
     Coordinates (X,Y,Z):    1.000000E-03    1.000000E-03    9.500000E-01
     TEMPORAL STATISTIC: RMS
  Property ID: TC
 204 ID: TC_CL_RMS
     QUANTITY: THERMOCOUPLE
     Coordinates (X,Y,Z):    1.000000E-03    1.000000E-03    9.700000E-01
     TEMPORAL STATISTIC: RMS
  Property ID: TC
 205 ID: TC_CL_RMS
     QUANTITY: THERMOCOUPLE
     Coordinates (X,Y,Z):    1.000000E-03    1.000000E-03    9.900000E-01
     TEMPORAL STATISTIC: RMS
  Property ID: TC
 206 ID: TG_CL_RMS
     QUANTITY: TEMPERATURE
     Coordinates (X,Y,Z):    1.000000E-03    1.000000E-03    1.000000E-02
     TEMPORAL STATISTIC: RMS
 207 ID: TG_CL_RMS
     QUANTITY: TEMPERATURE
     Coordinates (X,Y,Z):    1.000000E-03    1.000000E-03    3.000000E-02
     TEMPORAL STATISTIC: RMS
 208 ID: TG_CL_RMS
     QUANTITY: TEMPERATURE
     Coordinates (X,Y,Z):    1.000000E-03    1.000000E-03    5.000000E-02
     TEMPORAL STATISTIC: RMS
 209 ID: TG_CL_RMS
     QUANTITY: TEMPERATURE
     Coordinates (X,Y,Z):    1.000000E-03    1.000000E-03    7.000000E-02
     TEMPORAL STATISTIC: RMS
 210 ID: TG_CL_RMS
     QUANTITY: TEMPERATURE
     Coordinates (X,Y,Z):    1.000000E-03    1.000000E-03    9.000000E-02
     TEMPORAL STATISTIC: RMS
 211 ID: TG_CL_RMS
     QUANTITY: TEMPERATURE
     Coordinates (X,Y,Z):    1.000000E-03    1.000000E-03    1.100000E-01
     TEMPORAL STATISTIC: RMS
 212 ID: TG_CL_RMS
     QUANTITY: TEMPERATURE
     Coordinates (X,Y,Z):    1.000000E-03    1.000000E-03    1.300000E-01
     TEMPORAL STATISTIC: RMS
 213 ID: TG_CL_RMS
     QUANTITY: TEMPERATURE
     Coordinates (X,Y,Z):    1.000000E-03    1.000000E-03    1.500000E-01
     TEMPORAL STATISTIC: RMS
 214 ID: TG_CL_RMS
     QUANTITY: TEMPERATURE
     Coordinates (X,Y,Z):    1.000000E-03    1.000000E-03    1.700000E-01
     TEMPORAL STATISTIC: RMS
 215 ID: TG_CL_RMS
     QUANTITY: TEMPERATURE
     Coordinates (X,Y,Z):    1.000000E-03    1.000000E-03    1.900000E-01
     TEMPORAL STATISTIC: RMS
 216 ID: TG_CL_RMS
     QUANTITY: TEMPERATURE
     Coordinates (X,Y,Z):    1.000000E-03    1.000000E-03    2.100000E-01
     TEMPORAL STATISTIC: RMS
 217 ID: TG_CL_RMS
     QUANTITY: TEMPERATURE
     Coordinates (X,Y,Z):    1.000000E-03    1.000000E-03    2.300000E-01
     TEMPORAL STATISTIC: RMS
 218 ID: TG_CL_RMS
     QUANTITY: TEMPERATURE
     Coordinates (X,Y,Z):    1.000000E-03    1.000000E-03    2.500000E-01
     TEMPORAL STATISTIC: RMS
 219 ID: TG_CL_RMS
     QUANTITY: TEMPERATURE
     Coordinates (X,Y,Z):    1.000000E-03    1.000000E-03    2.700000E-01
     TEMPORAL STATISTIC: RMS
 220 ID: TG_CL_RMS
     QUANTITY: TEMPERATURE
     Coordinates (X,Y,Z):    1.000000E-03    1.000000E-03    2.900000E-01
     TEMPORAL STATISTIC: RMS
 221 ID: TG_CL_RMS
     QUANTITY: TEMPERATURE
     Coordinates (X,Y,Z):    1.000000E-03    1.000000E-03    3.100000E-01
     TEMPORAL STATISTIC: RMS
 222 ID: TG_CL_RMS
     QUANTITY: TEMPERATURE
     Coordinates (X,Y,Z):    1.000000E-03    1.000000E-03    3.300000E-01
     TEMPORAL STATISTIC: RMS
 223 ID: TG_CL_RMS
     QUANTITY: TEMPERATURE
     Coordinates (X,Y,Z):    1.000000E-03    1.000000E-03    3.500000E-01
     TEMPORAL STATISTIC: RMS
 224 ID: TG_CL_RMS
     QUANTITY: TEMPERATURE
     Coordinates (X,Y,Z):    1.000000E-03    1.000000E-03    3.700000E-01
     TEMPORAL STATISTIC: RMS
 225 ID: TG_CL_RMS
     QUANTITY: TEMPERATURE
     Coordinates (X,Y,Z):    1.000000E-03    1.000000E-03    3.900000E-01
     TEMPORAL STATISTIC: RMS
 226 ID: TG_CL_RMS
     QUANTITY: TEMPERATURE
     Coordinates (X,Y,Z):    1.000000E-03    1.000000E-03    4.100000E-01
     TEMPORAL STATISTIC: RMS
 227 ID: TG_CL_RMS
     QUANTITY: TEMPERATURE
     Coordinates (X,Y,Z):    1.000000E-03    1.000000E-03    4.300000E-01
     TEMPORAL STATISTIC: RMS
 228 ID: TG_CL_RMS
     QUANTITY: TEMPERATURE
     Coordinates (X,Y,Z):    1.000000E-03    1.000000E-03    4.500000E-01
     TEMPORAL STATISTIC: RMS
 229 ID: TG_CL_RMS
     QUANTITY: TEMPERATURE
     Coordinates (X,Y,Z):    1.000000E-03    1.000000E-03    4.700000E-01
     TEMPORAL STATISTIC: RMS
 230 ID: TG_CL_RMS
     QUANTITY: TEMPERATURE
     Coordinates (X,Y,Z):    1.000000E-03    1.000000E-03    4.900000E-01
     TEMPORAL STATISTIC: RMS
 231 ID: TG_CL_RMS
     QUANTITY: TEMPERATURE
     Coordinates (X,Y,Z):    1.000000E-03    1.000000E-03    5.100000E-01
     TEMPORAL STATISTIC: RMS
 232 ID: TG_CL_RMS
     QUANTITY: TEMPERATURE
     Coordinates (X,Y,Z):    1.000000E-03    1.000000E-03    5.300000E-01
     TEMPORAL STATISTIC: RMS
 233 ID: TG_CL_RMS
     QUANTITY: TEMPERATURE
     Coordinates (X,Y,Z):    1.000000E-03    1.000000E-03    5.500000E-01
     TEMPORAL STATISTIC: RMS
 234 ID: TG_CL_RMS
     QUANTITY: TEMPERATURE
     Coordinates (X,Y,Z):    1.000000E-03    1.000000E-03    5.700000E-01
     TEMPORAL STATISTIC: RMS
 235 ID: TG_CL_RMS
     QUANTITY: TEMPERATURE
     Coordinates (X,Y,Z):    1.000000E-03    1.000000E-03    5.900000E-01
     TEMPORAL STATISTIC: RMS
 236 ID: TG_CL_RMS
     QUANTITY: TEMPERATURE
     Coordinates (X,Y,Z):    1.000000E-03    1.000000E-03    6.100000E-01
     TEMPORAL STATISTIC: RMS
 237 ID: TG_CL_RMS
     QUANTITY: TEMPERATURE
     Coordinates (X,Y,Z):    1.000000E-03    1.000000E-03    6.300000E-01
     TEMPORAL STATISTIC: RMS
 238 ID: TG_CL_RMS
     QUANTITY: TEMPERATURE
     Coordinates (X,Y,Z):    1.000000E-03    1.000000E-03    6.500000E-01
     TEMPORAL STATISTIC: RMS
 239 ID: TG_CL_RMS
     QUANTITY: TEMPERATURE
     Coordinates (X,Y,Z):    1.000000E-03    1.000000E-03    6.700000E-01
     TEMPORAL STATISTIC: RMS
 240 ID: TG_CL_RMS
     QUANTITY: TEMPERATURE
     Coordinates (X,Y,Z):    1.000000E-03    1.000000E-03    6.900000E-01
     TEMPORAL STATISTIC: RMS
 241 ID: TG_CL_RMS
     QUANTITY: TEMPERATURE
     Coordinates (X,Y,Z):    1.000000E-03    1.000000E-03    7.100000E-01
     TEMPORAL STATISTIC: RMS
 242 ID: TG_CL_RMS
     QUANTITY: TEMPERATURE
     Coordinates (X,Y,Z):    1.000000E-03    1.000000E-03    7.300000E-01
     TEMPORAL STATISTIC: RMS
 243 ID: TG_CL_RMS
     QUANTITY: TEMPERATURE
     Coordinates (X,Y,Z):    1.000000E-03    1.000000E-03    7.500000E-01
     TEMPORAL STATISTIC: RMS
 244 ID: TG_CL_RMS
     QUANTITY: TEMPERATURE
     Coordinates (X,Y,Z):    1.000000E-03    1.000000E-03    7.700000E-01
     TEMPORAL STATISTIC: RMS
 245 ID: TG_CL_RMS
     QUANTITY: TEMPERATURE
     Coordinates (X,Y,Z):    1.000000E-03    1.000000E-03    7.900000E-01
     TEMPORAL STATISTIC: RMS
 246 ID: TG_CL_RMS
     QUANTITY: TEMPERATURE
     Coordinates (X,Y,Z):    1.000000E-03    1.000000E-03    8.100000E-01
     TEMPORAL STATISTIC: RMS
 247 ID: TG_CL_RMS
     QUANTITY: TEMPERATURE
     Coordinates (X,Y,Z):    1.000000E-03    1.000000E-03    8.300000E-01
     TEMPORAL STATISTIC: RMS
 248 ID: TG_CL_RMS
     QUANTITY: TEMPERATURE
     Coordinates (X,Y,Z):    1.000000E-03    1.000000E-03    8.500000E-01
     TEMPORAL STATISTIC: RMS
 249 ID: TG_CL_RMS
     QUANTITY: TEMPERATURE
     Coordinates (X,Y,Z):    1.000000E-03    1.000000E-03    8.700000E-01
     TEMPORAL STATISTIC: RMS
 250 ID: TG_CL_RMS
     QUANTITY: TEMPERATURE
     Coordinates (X,Y,Z):    1.000000E-03    1.000000E-03    8.900000E-01
     TEMPORAL STATISTIC: RMS
 251 ID: TG_CL_RMS
     QUANTITY: TEMPERATURE
     Coordinates (X,Y,Z):    1.000000E-03    1.000000E-03    9.100000E-01
     TEMPORAL STATISTIC: RMS
 252 ID: TG_CL_RMS
     QUANTITY: TEMPERATURE
     Coordinates (X,Y,Z):    1.000000E-03    1.000000E-03    9.300000E-01
     TEMPORAL STATISTIC: RMS
 253 ID: TG_CL_RMS
     QUANTITY: TEMPERATURE
     Coordinates (X,Y,Z):    1.000000E-03    1.000000E-03    9.500000E-01
     TEMPORAL STATISTIC: RMS
 254 ID: TG_CL_RMS
     QUANTITY: TEMPERATURE
     Coordinates (X,Y,Z):    1.000000E-03    1.000000E-03    9.700000E-01
     TEMPORAL STATISTIC: RMS
 255 ID: TG_CL_RMS
     QUANTITY: TEMPERATURE
     Coordinates (X,Y,Z):    1.000000E-03    1.000000E-03    9.900000E-01
     TEMPORAL STATISTIC: RMS
 256 ID: w_CL_RMS
     QUANTITY: W-VELOCITY
     Coordinates (X,Y,Z):    1.000000E-03    1.000000E-03    1.000000E-02
     TEMPORAL STATISTIC: RMS
 257 ID: w_CL_RMS
     QUANTITY: W-VELOCITY
     Coordinates (X,Y,Z):    1.000000E-03    1.000000E-03    3.000000E-02
     TEMPORAL STATISTIC: RMS
 258 ID: w_CL_RMS
     QUANTITY: W-VELOCITY
     Coordinates (X,Y,Z):    1.000000E-03    1.000000E-03    5.000000E-02
     TEMPORAL STATISTIC: RMS
 259 ID: w_CL_RMS
     QUANTITY: W-VELOCITY
     Coordinates (X,Y,Z):    1.000000E-03    1.000000E-03    7.000000E-02
     TEMPORAL STATISTIC: RMS
 260 ID: w_CL_RMS
     QUANTITY: W-VELOCITY
     Coordinates (X,Y,Z):    1.000000E-03    1.000000E-03    9.000000E-02
     TEMPORAL STATISTIC: RMS
 261 ID: w_CL_RMS
     QUANTITY: W-VELOCITY
     Coordinates (X,Y,Z):    1.000000E-03    1.000000E-03    1.100000E-01
     TEMPORAL STATISTIC: RMS
 262 ID: w_CL_RMS
     QUANTITY: W-VELOCITY
     Coordinates (X,Y,Z):    1.000000E-03    1.000000E-03    1.300000E-01
     TEMPORAL STATISTIC: RMS
 263 ID: w_CL_RMS
     QUANTITY: W-VELOCITY
     Coordinates (X,Y,Z):    1.000000E-03    1.000000E-03    1.500000E-01
     TEMPORAL STATISTIC: RMS
 264 ID: w_CL_RMS
     QUANTITY: W-VELOCITY
     Coordinates (X,Y,Z):    1.000000E-03    1.000000E-03    1.700000E-01
     TEMPORAL STATISTIC: RMS
 265 ID: w_CL_RMS
     QUANTITY: W-VELOCITY
     Coordinates (X,Y,Z):    1.000000E-03    1.000000E-03    1.900000E-01
     TEMPORAL STATISTIC: RMS
 266 ID: w_CL_RMS
     QUANTITY: W-VELOCITY
     Coordinates (X,Y,Z):    1.000000E-03    1.000000E-03    2.100000E-01
     TEMPORAL STATISTIC: RMS
 267 ID: w_CL_RMS
     QUANTITY: W-VELOCITY
     Coordinates (X,Y,Z):    1.000000E-03    1.000000E-03    2.300000E-01
     TEMPORAL STATISTIC: RMS
 268 ID: w_CL_RMS
     QUANTITY: W-VELOCITY
     Coordinates (X,Y,Z):    1.000000E-03    1.000000E-03    2.500000E-01
     TEMPORAL STATISTIC: RMS
 269 ID: w_CL_RMS
     QUANTITY: W-VELOCITY
     Coordinates (X,Y,Z):    1.000000E-03    1.000000E-03    2.700000E-01
     TEMPORAL STATISTIC: RMS
 270 ID: w_CL_RMS
     QUANTITY: W-VELOCITY
     Coordinates (X,Y,Z):    1.000000E-03    1.000000E-03    2.900000E-01
     TEMPORAL STATISTIC: RMS
 271 ID: w_CL_RMS
     QUANTITY: W-VELOCITY
     Coordinates (X,Y,Z):    1.000000E-03    1.000000E-03    3.100000E-01
     TEMPORAL STATISTIC: RMS
 272 ID: w_CL_RMS
     QUANTITY: W-VELOCITY
     Coordinates (X,Y,Z):    1.000000E-03    1.000000E-03    3.300000E-01
     TEMPORAL STATISTIC: RMS
 273 ID: w_CL_RMS
     QUANTITY: W-VELOCITY
     Coordinates (X,Y,Z):    1.000000E-03    1.000000E-03    3.500000E-01
     TEMPORAL STATISTIC: RMS
 274 ID: w_CL_RMS
     QUANTITY: W-VELOCITY
     Coordinates (X,Y,Z):    1.000000E-03    1.000000E-03    3.700000E-01
     TEMPORAL STATISTIC: RMS
 275 ID: w_CL_RMS
     QUANTITY: W-VELOCITY
     Coordinates (X,Y,Z):    1.000000E-03    1.000000E-03    3.900000E-01
     TEMPORAL STATISTIC: RMS
 276 ID: w_CL_RMS
     QUANTITY: W-VELOCITY
     Coordinates (X,Y,Z):    1.000000E-03    1.000000E-03    4.100000E-01
     TEMPORAL STATISTIC: RMS
 277 ID: w_CL_RMS
     QUANTITY: W-VELOCITY
     Coordinates (X,Y,Z):    1.000000E-03    1.000000E-03    4.300000E-01
     TEMPORAL STATISTIC: RMS
 278 ID: w_CL_RMS
     QUANTITY: W-VELOCITY
     Coordinates (X,Y,Z):    1.000000E-03    1.000000E-03    4.500000E-01
     TEMPORAL STATISTIC: RMS
 279 ID: w_CL_RMS
     QUANTITY: W-VELOCITY
     Coordinates (X,Y,Z):    1.000000E-03    1.000000E-03    4.700000E-01
     TEMPORAL STATISTIC: RMS
 280 ID: w_CL_RMS
     QUANTITY: W-VELOCITY
     Coordinates (X,Y,Z):    1.000000E-03    1.000000E-03    4.900000E-01
     TEMPORAL STATISTIC: RMS
 281 ID: w_CL_RMS
     QUANTITY: W-VELOCITY
     Coordinates (X,Y,Z):    1.000000E-03    1.000000E-03    5.100000E-01
     TEMPORAL STATISTIC: RMS
 282 ID: w_CL_RMS
     QUANTITY: W-VELOCITY
     Coordinates (X,Y,Z):    1.000000E-03    1.000000E-03    5.300000E-01
     TEMPORAL STATISTIC: RMS
 283 ID: w_CL_RMS
     QUANTITY: W-VELOCITY
     Coordinates (X,Y,Z):    1.000000E-03    1.000000E-03    5.500000E-01
     TEMPORAL STATISTIC: RMS
 284 ID: w_CL_RMS
     QUANTITY: W-VELOCITY
     Coordinates (X,Y,Z):    1.000000E-03    1.000000E-03    5.700000E-01
     TEMPORAL STATISTIC: RMS
 285 ID: w_CL_RMS
     QUANTITY: W-VELOCITY
     Coordinates (X,Y,Z):    1.000000E-03    1.000000E-03    5.900000E-01
     TEMPORAL STATISTIC: RMS
 286 ID: w_CL_RMS
     QUANTITY: W-VELOCITY
     Coordinates (X,Y,Z):    1.000000E-03    1.000000E-03    6.100000E-01
     TEMPORAL STATISTIC: RMS
 287 ID: w_CL_RMS
     QUANTITY: W-VELOCITY
     Coordinates (X,Y,Z):    1.000000E-03    1.000000E-03    6.300000E-01
     TEMPORAL STATISTIC: RMS
 288 ID: w_CL_RMS
     QUANTITY: W-VELOCITY
     Coordinates (X,Y,Z):    1.000000E-03    1.000000E-03    6.500000E-01
     TEMPORAL STATISTIC: RMS
 289 ID: w_CL_RMS
     QUANTITY: W-VELOCITY
     Coordinates (X,Y,Z):    1.000000E-03    1.000000E-03    6.700000E-01
     TEMPORAL STATISTIC: RMS
 290 ID: w_CL_RMS
     QUANTITY: W-VELOCITY
     Coordinates (X,Y,Z):    1.000000E-03    1.000000E-03    6.900000E-01
     TEMPORAL STATISTIC: RMS
 291 ID: w_CL_RMS
     QUANTITY: W-VELOCITY
     Coordinates (X,Y,Z):    1.000000E-03    1.000000E-03    7.100000E-01
     TEMPORAL STATISTIC: RMS
 292 ID: w_CL_RMS
     QUANTITY: W-VELOCITY
     Coordinates (X,Y,Z):    1.000000E-03    1.000000E-03    7.300000E-01
     TEMPORAL STATISTIC: RMS
 293 ID: w_CL_RMS
     QUANTITY: W-VELOCITY
     Coordinates (X,Y,Z):    1.000000E-03    1.000000E-03    7.500000E-01
     TEMPORAL STATISTIC: RMS
 294 ID: w_CL_RMS
     QUANTITY: W-VELOCITY
     Coordinates (X,Y,Z):    1.000000E-03    1.000000E-03    7.700000E-01
     TEMPORAL STATISTIC: RMS
 295 ID: w_CL_RMS
     QUANTITY: W-VELOCITY
     Coordinates (X,Y,Z):    1.000000E-03    1.000000E-03    7.900000E-01
     TEMPORAL STATISTIC: RMS
 296 ID: w_CL_RMS
     QUANTITY: W-VELOCITY
     Coordinates (X,Y,Z):    1.000000E-03    1.000000E-03    8.100000E-01
     TEMPORAL STATISTIC: RMS
 297 ID: w_CL_RMS
     QUANTITY: W-VELOCITY
     Coordinates (X,Y,Z):    1.000000E-03    1.000000E-03    8.300000E-01
     TEMPORAL STATISTIC: RMS
 298 ID: w_CL_RMS
     QUANTITY: W-VELOCITY
     Coordinates (X,Y,Z):    1.000000E-03    1.000000E-03    8.500000E-01
     TEMPORAL STATISTIC: RMS
 299 ID: w_CL_RMS
     QUANTITY: W-VELOCITY
     Coordinates (X,Y,Z):    1.000000E-03    1.000000E-03    8.700000E-01
     TEMPORAL STATISTIC: RMS
 300 ID: w_CL_RMS
     QUANTITY: W-VELOCITY
     Coordinates (X,Y,Z):    1.000000E-03    1.000000E-03    8.900000E-01
     TEMPORAL STATISTIC: RMS
 301 ID: w_CL_RMS
     QUANTITY: W-VELOCITY
     Coordinates (X,Y,Z):    1.000000E-03    1.000000E-03    9.100000E-01
     TEMPORAL STATISTIC: RMS
 302 ID: w_CL_RMS
     QUANTITY: W-VELOCITY
     Coordinates (X,Y,Z):    1.000000E-03    1.000000E-03    9.300000E-01
     TEMPORAL STATISTIC: RMS
 303 ID: w_CL_RMS
     QUANTITY: W-VELOCITY
     Coordinates (X,Y,Z):    1.000000E-03    1.000000E-03    9.500000E-01
     TEMPORAL STATISTIC: RMS
 304 ID: w_CL_RMS
     QUANTITY: W-VELOCITY
     Coordinates (X,Y,Z):    1.000000E-03    1.000000E-03    9.700000E-01
     TEMPORAL STATISTIC: RMS
 305 ID: w_CL_RMS
     QUANTITY: W-VELOCITY
     Coordinates (X,Y,Z):    1.000000E-03    1.000000E-03    9.900000E-01
     TEMPORAL STATISTIC: RMS
 306 ID: X_O2
     QUANTITY: VOLUME FRACTION
     Species ID: OXYGEN
     Coordinates (X,Y,Z):    1.000000E-03    1.000000E-03    1.000000E-02
     TEMPORAL STATISTIC: RUNNING AVERAGE
 307 ID: X_O2
     QUANTITY: VOLUME FRACTION
     Species ID: OXYGEN
     Coordinates (X,Y,Z):    1.000000E-03    1.000000E-03    3.000000E-02
     TEMPORAL STATISTIC: RUNNING AVERAGE
 308 ID: X_O2
     QUANTITY: VOLUME FRACTION
     Species ID: OXYGEN
     Coordinates (X,Y,Z):    1.000000E-03    1.000000E-03    5.000000E-02
     TEMPORAL STATISTIC: RUNNING AVERAGE
 309 ID: X_O2
     QUANTITY: VOLUME FRACTION
     Species ID: OXYGEN
     Coordinates (X,Y,Z):    1.000000E-03    1.000000E-03    7.000000E-02
     TEMPORAL STATISTIC: RUNNING AVERAGE
 310 ID: X_O2
     QUANTITY: VOLUME FRACTION
     Species ID: OXYGEN
     Coordinates (X,Y,Z):    1.000000E-03    1.000000E-03    9.000000E-02
     TEMPORAL STATISTIC: RUNNING AVERAGE
 311 ID: X_O2
     QUANTITY: VOLUME FRACTION
     Species ID: OXYGEN
     Coordinates (X,Y,Z):    1.000000E-03    1.000000E-03    1.100000E-01
     TEMPORAL STATISTIC: RUNNING AVERAGE
 312 ID: X_O2
     QUANTITY: VOLUME FRACTION
     Species ID: OXYGEN
     Coordinates (X,Y,Z):    1.000000E-03    1.000000E-03    1.300000E-01
     TEMPORAL STATISTIC: RUNNING AVERAGE
 313 ID: X_O2
     QUANTITY: VOLUME FRACTION
     Species ID: OXYGEN
     Coordinates (X,Y,Z):    1.000000E-03    1.000000E-03    1.500000E-01
     TEMPORAL STATISTIC: RUNNING AVERAGE
 314 ID: X_O2
     QUANTITY: VOLUME FRACTION
     Species ID: OXYGEN
     Coordinates (X,Y,Z):    1.000000E-03    1.000000E-03    1.700000E-01
     TEMPORAL STATISTIC: RUNNING AVERAGE
 315 ID: X_O2
     QUANTITY: VOLUME FRACTION
     Species ID: OXYGEN
     Coordinates (X,Y,Z):    1.000000E-03    1.000000E-03    1.900000E-01
     TEMPORAL STATISTIC: RUNNING AVERAGE
 316 ID: X_O2
     QUANTITY: VOLUME FRACTION
     Species ID: OXYGEN
     Coordinates (X,Y,Z):    1.000000E-03    1.000000E-03    2.100000E-01
     TEMPORAL STATISTIC: RUNNING AVERAGE
 317 ID: X_O2
     QUANTITY: VOLUME FRACTION
     Species ID: OXYGEN
     Coordinates (X,Y,Z):    1.000000E-03    1.000000E-03    2.300000E-01
     TEMPORAL STATISTIC: RUNNING AVERAGE
 318 ID: X_O2
     QUANTITY: VOLUME FRACTION
     Species ID: OXYGEN
     Coordinates (X,Y,Z):    1.000000E-03    1.000000E-03    2.500000E-01
     TEMPORAL STATISTIC: RUNNING AVERAGE
 319 ID: X_O2
     QUANTITY: VOLUME FRACTION
     Species ID: OXYGEN
     Coordinates (X,Y,Z):    1.000000E-03    1.000000E-03    2.700000E-01
     TEMPORAL STATISTIC: RUNNING AVERAGE
 320 ID: X_O2
     QUANTITY: VOLUME FRACTION
     Species ID: OXYGEN
     Coordinates (X,Y,Z):    1.000000E-03    1.000000E-03    2.900000E-01
     TEMPORAL STATISTIC: RUNNING AVERAGE
 321 ID: X_O2
     QUANTITY: VOLUME FRACTION
     Species ID: OXYGEN
     Coordinates (X,Y,Z):    1.000000E-03    1.000000E-03    3.100000E-01
     TEMPORAL STATISTIC: RUNNING AVERAGE
 322 ID: X_O2
     QUANTITY: VOLUME FRACTION
     Species ID: OXYGEN
     Coordinates (X,Y,Z):    1.000000E-03    1.000000E-03    3.300000E-01
     TEMPORAL STATISTIC: RUNNING AVERAGE
 323 ID: X_O2
     QUANTITY: VOLUME FRACTION
     Species ID: OXYGEN
     Coordinates (X,Y,Z):    1.000000E-03    1.000000E-03    3.500000E-01
     TEMPORAL STATISTIC: RUNNING AVERAGE
 324 ID: X_O2
     QUANTITY: VOLUME FRACTION
     Species ID: OXYGEN
     Coordinates (X,Y,Z):    1.000000E-03    1.000000E-03    3.700000E-01
     TEMPORAL STATISTIC: RUNNING AVERAGE
 325 ID: X_O2
     QUANTITY: VOLUME FRACTION
     Species ID: OXYGEN
     Coordinates (X,Y,Z):    1.000000E-03    1.000000E-03    3.900000E-01
     TEMPORAL STATISTIC: RUNNING AVERAGE
 326 ID: X_O2
     QUANTITY: VOLUME FRACTION
     Species ID: OXYGEN
     Coordinates (X,Y,Z):    1.000000E-03    1.000000E-03    4.100000E-01
     TEMPORAL STATISTIC: RUNNING AVERAGE
 327 ID: X_O2
     QUANTITY: VOLUME FRACTION
     Species ID: OXYGEN
     Coordinates (X,Y,Z):    1.000000E-03    1.000000E-03    4.300000E-01
     TEMPORAL STATISTIC: RUNNING AVERAGE
 328 ID: X_O2
     QUANTITY: VOLUME FRACTION
     Species ID: OXYGEN
     Coordinates (X,Y,Z):    1.000000E-03    1.000000E-03    4.500000E-01
     TEMPORAL STATISTIC: RUNNING AVERAGE
 329 ID: X_O2
     QUANTITY: VOLUME FRACTION
     Species ID: OXYGEN
     Coordinates (X,Y,Z):    1.000000E-03    1.000000E-03    4.700000E-01
     TEMPORAL STATISTIC: RUNNING AVERAGE
 330 ID: X_O2
     QUANTITY: VOLUME FRACTION
     Species ID: OXYGEN
     Coordinates (X,Y,Z):    1.000000E-03    1.000000E-03    4.900000E-01
     TEMPORAL STATISTIC: RUNNING AVERAGE
 331 ID: X_O2
     QUANTITY: VOLUME FRACTION
     Species ID: OXYGEN
     Coordinates (X,Y,Z):    1.000000E-03    1.000000E-03    5.100000E-01
     TEMPORAL STATISTIC: RUNNING AVERAGE
 332 ID: X_O2
     QUANTITY: VOLUME FRACTION
     Species ID: OXYGEN
     Coordinates (X,Y,Z):    1.000000E-03    1.000000E-03    5.300000E-01
     TEMPORAL STATISTIC: RUNNING AVERAGE
 333 ID: X_O2
     QUANTITY: VOLUME FRACTION
     Species ID: OXYGEN
     Coordinates (X,Y,Z):    1.000000E-03    1.000000E-03    5.500000E-01
     TEMPORAL STATISTIC: RUNNING AVERAGE
 334 ID: X_O2
     QUANTITY: VOLUME FRACTION
     Species ID: OXYGEN
     Coordinates (X,Y,Z):    1.000000E-03    1.000000E-03    5.700000E-01
     TEMPORAL STATISTIC: RUNNING AVERAGE
 335 ID: X_O2
     QUANTITY: VOLUME FRACTION
     Species ID: OXYGEN
     Coordinates (X,Y,Z):    1.000000E-03    1.000000E-03    5.900000E-01
     TEMPORAL STATISTIC: RUNNING AVERAGE
 336 ID: X_O2
     QUANTITY: VOLUME FRACTION
     Species ID: OXYGEN
     Coordinates (X,Y,Z):    1.000000E-03    1.000000E-03    6.100000E-01
     TEMPORAL STATISTIC: RUNNING AVERAGE
 337 ID: X_O2
     QUANTITY: VOLUME FRACTION
     Species ID: OXYGEN
     Coordinates (X,Y,Z):    1.000000E-03    1.000000E-03    6.300000E-01
     TEMPORAL STATISTIC: RUNNING AVERAGE
 338 ID: X_O2
     QUANTITY: VOLUME FRACTION
     Species ID: OXYGEN
     Coordinates (X,Y,Z):    1.000000E-03    1.000000E-03    6.500000E-01
     TEMPORAL STATISTIC: RUNNING AVERAGE
 339 ID: X_O2
     QUANTITY: VOLUME FRACTION
     Species ID: OXYGEN
     Coordinates (X,Y,Z):    1.000000E-03    1.000000E-03    6.700000E-01
     TEMPORAL STATISTIC: RUNNING AVERAGE
 340 ID: X_O2
     QUANTITY: VOLUME FRACTION
     Species ID: OXYGEN
     Coordinates (X,Y,Z):    1.000000E-03    1.000000E-03    6.900000E-01
     TEMPORAL STATISTIC: RUNNING AVERAGE
 341 ID: X_O2
     QUANTITY: VOLUME FRACTION
     Species ID: OXYGEN
     Coordinates (X,Y,Z):    1.000000E-03    1.000000E-03    7.100000E-01
     TEMPORAL STATISTIC: RUNNING AVERAGE
 342 ID: X_O2
     QUANTITY: VOLUME FRACTION
     Species ID: OXYGEN
     Coordinates (X,Y,Z):    1.000000E-03    1.000000E-03    7.300000E-01
     TEMPORAL STATISTIC: RUNNING AVERAGE
 343 ID: X_O2
     QUANTITY: VOLUME FRACTION
     Species ID: OXYGEN
     Coordinates (X,Y,Z):    1.000000E-03    1.000000E-03    7.500000E-01
     TEMPORAL STATISTIC: RUNNING AVERAGE
 344 ID: X_O2
     QUANTITY: VOLUME FRACTION
     Species ID: OXYGEN
     Coordinates (X,Y,Z):    1.000000E-03    1.000000E-03    7.700000E-01
     TEMPORAL STATISTIC: RUNNING AVERAGE
 345 ID: X_O2
     QUANTITY: VOLUME FRACTION
     Species ID: OXYGEN
     Coordinates (X,Y,Z):    1.000000E-03    1.000000E-03    7.900000E-01
     TEMPORAL STATISTIC: RUNNING AVERAGE
 346 ID: X_O2
     QUANTITY: VOLUME FRACTION
     Species ID: OXYGEN
     Coordinates (X,Y,Z):    1.000000E-03    1.000000E-03    8.100000E-01
     TEMPORAL STATISTIC: RUNNING AVERAGE
 347 ID: X_O2
     QUANTITY: VOLUME FRACTION
     Species ID: OXYGEN
     Coordinates (X,Y,Z):    1.000000E-03    1.000000E-03    8.300000E-01
     TEMPORAL STATISTIC: RUNNING AVERAGE
 348 ID: X_O2
     QUANTITY: VOLUME FRACTION
     Species ID: OXYGEN
     Coordinates (X,Y,Z):    1.000000E-03    1.000000E-03    8.500000E-01
     TEMPORAL STATISTIC: RUNNING AVERAGE
 349 ID: X_O2
     QUANTITY: VOLUME FRACTION
     Species ID: OXYGEN
     Coordinates (X,Y,Z):    1.000000E-03    1.000000E-03    8.700000E-01
     TEMPORAL STATISTIC: RUNNING AVERAGE
 350 ID: X_O2
     QUANTITY: VOLUME FRACTION
     Species ID: OXYGEN
     Coordinates (X,Y,Z):    1.000000E-03    1.000000E-03    8.900000E-01
     TEMPORAL STATISTIC: RUNNING AVERAGE
 351 ID: X_O2
     QUANTITY: VOLUME FRACTION
     Species ID: OXYGEN
     Coordinates (X,Y,Z):    1.000000E-03    1.000000E-03    9.100000E-01
     TEMPORAL STATISTIC: RUNNING AVERAGE
 352 ID: X_O2
     QUANTITY: VOLUME FRACTION
     Species ID: OXYGEN
     Coordinates (X,Y,Z):    1.000000E-03    1.000000E-03    9.300000E-01
     TEMPORAL STATISTIC: RUNNING AVERAGE
 353 ID: X_O2
     QUANTITY: VOLUME FRACTION
     Species ID: OXYGEN
     Coordinates (X,Y,Z):    1.000000E-03    1.000000E-03    9.500000E-01
     TEMPORAL STATISTIC: RUNNING AVERAGE
 354 ID: X_O2
     QUANTITY: VOLUME FRACTION
     Species ID: OXYGEN
     Coordinates (X,Y,Z):    1.000000E-03    1.000000E-03    9.700000E-01
     TEMPORAL STATISTIC: RUNNING AVERAGE
 355 ID: X_O2
     QUANTITY: VOLUME FRACTION
     Species ID: OXYGEN
     Coordinates (X,Y,Z):    1.000000E-03    1.000000E-03    9.900000E-01
     TEMPORAL STATISTIC: RUNNING AVERAGE
 356 ID: X_CO2
     QUANTITY: VOLUME FRACTION
     Species ID: CARBON DIOXIDE
     Coordinates (X,Y,Z):    1.000000E-03    1.000000E-03    1.000000E-02
     TEMPORAL STATISTIC: RUNNING AVERAGE
 357 ID: X_CO2
     QUANTITY: VOLUME FRACTION
     Species ID: CARBON DIOXIDE
     Coordinates (X,Y,Z):    1.000000E-03    1.000000E-03    3.000000E-02
     TEMPORAL STATISTIC: RUNNING AVERAGE
 358 ID: X_CO2
     QUANTITY: VOLUME FRACTION
     Species ID: CARBON DIOXIDE
     Coordinates (X,Y,Z):    1.000000E-03    1.000000E-03    5.000000E-02
     TEMPORAL STATISTIC: RUNNING AVERAGE
 359 ID: X_CO2
     QUANTITY: VOLUME FRACTION
     Species ID: CARBON DIOXIDE
     Coordinates (X,Y,Z):    1.000000E-03    1.000000E-03    7.000000E-02
     TEMPORAL STATISTIC: RUNNING AVERAGE
 360 ID: X_CO2
     QUANTITY: VOLUME FRACTION
     Species ID: CARBON DIOXIDE
     Coordinates (X,Y,Z):    1.000000E-03    1.000000E-03    9.000000E-02
     TEMPORAL STATISTIC: RUNNING AVERAGE
 361 ID: X_CO2
     QUANTITY: VOLUME FRACTION
     Species ID: CARBON DIOXIDE
     Coordinates (X,Y,Z):    1.000000E-03    1.000000E-03    1.100000E-01
     TEMPORAL STATISTIC: RUNNING AVERAGE
 362 ID: X_CO2
     QUANTITY: VOLUME FRACTION
     Species ID: CARBON DIOXIDE
     Coordinates (X,Y,Z):    1.000000E-03    1.000000E-03    1.300000E-01
     TEMPORAL STATISTIC: RUNNING AVERAGE
 363 ID: X_CO2
     QUANTITY: VOLUME FRACTION
     Species ID: CARBON DIOXIDE
     Coordinates (X,Y,Z):    1.000000E-03    1.000000E-03    1.500000E-01
     TEMPORAL STATISTIC: RUNNING AVERAGE
 364 ID: X_CO2
     QUANTITY: VOLUME FRACTION
     Species ID: CARBON DIOXIDE
     Coordinates (X,Y,Z):    1.000000E-03    1.000000E-03    1.700000E-01
     TEMPORAL STATISTIC: RUNNING AVERAGE
 365 ID: X_CO2
     QUANTITY: VOLUME FRACTION
     Species ID: CARBON DIOXIDE
     Coordinates (X,Y,Z):    1.000000E-03    1.000000E-03    1.900000E-01
     TEMPORAL STATISTIC: RUNNING AVERAGE
 366 ID: X_CO2
     QUANTITY: VOLUME FRACTION
     Species ID: CARBON DIOXIDE
     Coordinates (X,Y,Z):    1.000000E-03    1.000000E-03    2.100000E-01
     TEMPORAL STATISTIC: RUNNING AVERAGE
 367 ID: X_CO2
     QUANTITY: VOLUME FRACTION
     Species ID: CARBON DIOXIDE
     Coordinates (X,Y,Z):    1.000000E-03    1.000000E-03    2.300000E-01
     TEMPORAL STATISTIC: RUNNING AVERAGE
 368 ID: X_CO2
     QUANTITY: VOLUME FRACTION
     Species ID: CARBON DIOXIDE
     Coordinates (X,Y,Z):    1.000000E-03    1.000000E-03    2.500000E-01
     TEMPORAL STATISTIC: RUNNING AVERAGE
 369 ID: X_CO2
     QUANTITY: VOLUME FRACTION
     Species ID: CARBON DIOXIDE
     Coordinates (X,Y,Z):    1.000000E-03    1.000000E-03    2.700000E-01
     TEMPORAL STATISTIC: RUNNING AVERAGE
 370 ID: X_CO2
     QUANTITY: VOLUME FRACTION
[...]
 Time Step:  75200, Simulation Time:     33.17 s, Step Size: 0.00036 s, Pressure Iterations: 8
 Time Step:  75300, Simulation Time:     33.20 s, Step Size: 0.00036 s, Pressure Iterations: 8
 Time Step:  75400, Simulation Time:     33.24 s, Step Size: 0.00044 s, Pressure Iterations: 10
 Time Step:  75500, Simulation Time:     33.29 s, Step Size: 0.00044 s, Pressure Iterations: 10
 Time Step:  75600, Simulation Time:     33.33 s, Step Size: 0.00048 s, Pressure Iterations: 10
 Time Step:  75700, Simulation Time:     33.38 s, Step Size: 0.00048 s, Pressure Iterations: 10
 Time Step:  75800, Simulation Time:     33.43 s, Step Size: 0.00048 s, Pressure Iterations: 10
 Time Step:  75900, Simulation Time:     33.47 s, Step Size: 0.00043 s, Pressure Iterations: 10
 Time Step:  76000, Simulation Time:     33.51 s, Step Size: 0.00043 s, Pressure Iterations: 10
 Time Step:  76100, Simulation Time:     33.55 s, Step Size: 0.00039 s, Pressure Iterations: 10
 Time Step:  76200, Simulation Time:     33.60 s, Step Size: 0.00043 s, Pressure Iterations: 10
 Time Step:  76300, Simulation Time:     33.64 s, Step Size: 0.00043 s, Pressure Iterations: 10
 Time Step:  76400, Simulation Time:     33.68 s, Step Size: 0.00043 s, Pressure Iterations: 10
 Time Step:  76500, Simulation Time:     33.73 s, Step Size: 0.00047 s, Pressure Iterations: 8
 Time Step:  76600, Simulation Time:     33.78 s, Step Size: 0.00052 s, Pressure Iterations: 10
 Time Step:  76700, Simulation Time:     33.83 s, Step Size: 0.00052 s, Pressure Iterations: 10
 Time Step:  76800, Simulation Time:     33.88 s, Step Size: 0.00051 s, Pressure Iterations: 10
 Time Step:  76900, Simulation Time:     33.92 s, Step Size: 0.00046 s, Pressure Iterations: 10
 Time Step:  77000, Simulation Time:     33.97 s, Step Size: 0.00046 s, Pressure Iterations: 10
 Time Step:  77100, Simulation Time:     34.01 s, Step Size: 0.00046 s, Pressure Iterations: 10
 Time Step:  77200, Simulation Time:     34.06 s, Step Size: 0.00045 s, Pressure Iterations: 10
 Time Step:  77300, Simulation Time:     34.10 s, Step Size: 0.00049 s, Pressure Iterations: 10
 Time Step:  77400, Simulation Time:     34.15 s, Step Size: 0.00049 s, Pressure Iterations: 10
 Time Step:  77500, Simulation Time:     34.20 s, Step Size: 0.00044 s, Pressure Iterations: 10
 Time Step:  77600, Simulation Time:     34.24 s, Step Size: 0.00044 s, Pressure Iterations: 10
 Time Step:  77700, Simulation Time:     34.29 s, Step Size: 0.00044 s, Pressure Iterations: 10
 Time Step:  77800, Simulation Time:     34.34 s, Step Size: 0.00049 s, Pressure Iterations: 10
 Time Step:  77900, Simulation Time:     34.38 s, Step Size: 0.00039 s, Pressure Iterations: 10
 Time Step:  78000, Simulation Time:     34.43 s, Step Size: 0.00047 s, Pressure Iterations: 10
 Time Step:  78100, Simulation Time:     34.47 s, Step Size: 0.00047 s, Pressure Iterations: 10
 Time Step:  78200, Simulation Time:     34.52 s, Step Size: 0.00046 s, Pressure Iterations: 10
 Time Step:  78300, Simulation Time:     34.56 s, Step Size: 0.00045 s, Pressure Iterations: 10
 Time Step:  78400, Simulation Time:     34.61 s, Step Size: 0.00049 s, Pressure Iterations: 10
 Time Step:  78500, Simulation Time:     34.66 s, Step Size: 0.00049 s, Pressure Iterations: 10
 Time Step:  78600, Simulation Time:     34.70 s, Step Size: 0.00044 s, Pressure Iterations: 10
 Time Step:  78700, Simulation Time:     34.75 s, Step Size: 0.00044 s, Pressure Iterations: 10
 Time Step:  78800, Simulation Time:     34.80 s, Step Size: 0.00053 s, Pressure Iterations: 10
 Time Step:  78900, Simulation Time:     34.85 s, Step Size: 0.00052 s, Pressure Iterations: 10
 Time Step:  79000, Simulation Time:     34.90 s, Step Size: 0.00052 s, Pressure Iterations: 10
 Time Step:  79100, Simulation Time:     34.95 s, Step Size: 0.00042 s, Pressure Iterations: 10
 Time Step:  79200, Simulation Time:     34.99 s, Step Size: 0.00042 s, Pressure Iterations: 10
 Time Step:  79300, Simulation Time:     35.03 s, Step Size: 0.00042 s, Pressure Iterations: 10
 Time Step:  79400, Simulation Time:     35.07 s, Step Size: 0.00042 s, Pressure Iterations: 10
 Time Step:  79500, Simulation Time:     35.11 s, Step Size: 0.00046 s, Pressure Iterations: 10
 Time Step:  79600, Simulation Time:     35.16 s, Step Size: 0.00046 s, Pressure Iterations: 10
 Time Step:  79700, Simulation Time:     35.20 s, Step Size: 0.00046 s, Pressure Iterations: 10
 Time Step:  79800, Simulation Time:     35.25 s, Step Size: 0.00050 s, Pressure Iterations: 10
 Time Step:  79900, Simulation Time:     35.30 s, Step Size: 0.00050 s, Pressure Iterations: 10
 Time Step:  80000, Simulation Time:     35.34 s, Step Size: 0.00045 s, Pressure Iterations: 10
 Time Step:  80100, Simulation Time:     35.39 s, Step Size: 0.00045 s, Pressure Iterations: 10
 Time Step:  80200, Simulation Time:     35.43 s, Step Size: 0.00045 s, Pressure Iterations: 10
 Time Step:  80300, Simulation Time:     35.48 s, Step Size: 0.00045 s, Pressure Iterations: 10
 Time Step:  80400, Simulation Time:     35.52 s, Step Size: 0.00044 s, Pressure Iterations: 10
 Time Step:  80500, Simulation Time:     35.57 s, Step Size: 0.00048 s, Pressure Iterations: 10
 Time Step:  80600, Simulation Time:     35.61 s, Step Size: 0.00042 s, Pressure Iterations: 10
 Time Step:  80700, Simulation Time:     35.66 s, Step Size: 0.00051 s, Pressure Iterations: 10
 Time Step:  80800, Simulation Time:     35.71 s, Step Size: 0.00051 s, Pressure Iterations: 10
 Time Step:  80900, Simulation Time:     35.76 s, Step Size: 0.00051 s, Pressure Iterations: 8
 Time Step:  81000, Simulation Time:     35.81 s, Step Size: 0.00050 s, Pressure Iterations: 10
 Time Step:  81100, Simulation Time:     35.86 s, Step Size: 0.00050 s, Pressure Iterations: 10
 Time Step:  81200, Simulation Time:     35.91 s, Step Size: 0.00049 s, Pressure Iterations: 10
 Time Step:  81300, Simulation Time:     35.96 s, Step Size: 0.00054 s, Pressure Iterations: 10
 Time Step:  81400, Simulation Time:     36.01 s, Step Size: 0.00042 s, Pressure Iterations: 10
 Time Step:  81500, Simulation Time:     36.05 s, Step Size: 0.00042 s, Pressure Iterations: 10
 Time Step:  81600, Simulation Time:     36.08 s, Step Size: 0.00033 s, Pressure Iterations: 10
 Time Step:  81700, Simulation Time:     36.12 s, Step Size: 0.00040 s, Pressure Iterations: 10
 Time Step:  81800, Simulation Time:     36.16 s, Step Size: 0.00040 s, Pressure Iterations: 10
 Time Step:  81900, Simulation Time:     36.20 s, Step Size: 0.00044 s, Pressure Iterations: 10
 Time Step:  82000, Simulation Time:     36.24 s, Step Size: 0.00039 s, Pressure Iterations: 10
 Time Step:  82100, Simulation Time:     36.29 s, Step Size: 0.00048 s, Pressure Iterations: 10
 Time Step:  82200, Simulation Time:     36.33 s, Step Size: 0.00048 s, Pressure Iterations: 10
 Time Step:  82300, Simulation Time:     36.38 s, Step Size: 0.00047 s, Pressure Iterations: 10
 Time Step:  82400, Simulation Time:     36.43 s, Step Size: 0.00042 s, Pressure Iterations: 10
 Time Step:  82500, Simulation Time:     36.47 s, Step Size: 0.00041 s, Pressure Iterations: 10
 Time Step:  82600, Simulation Time:     36.51 s, Step Size: 0.00045 s, Pressure Iterations: 10
 Time Step:  82700, Simulation Time:     36.55 s, Step Size: 0.00040 s, Pressure Iterations: 10
 Time Step:  82800, Simulation Time:     36.59 s, Step Size: 0.00040 s, Pressure Iterations: 10
 Time Step:  82900, Simulation Time:     36.63 s, Step Size: 0.00040 s, Pressure Iterations: 10
 Time Step:  83000, Simulation Time:     36.68 s, Step Size: 0.00048 s, Pressure Iterations: 10
 Time Step:  83100, Simulation Time:     36.72 s, Step Size: 0.00053 s, Pressure Iterations: 10
 Time Step:  83200, Simulation Time:     36.77 s, Step Size: 0.00047 s, Pressure Iterations: 10
 Time Step:  83300, Simulation Time:     36.82 s, Step Size: 0.00051 s, Pressure Iterations: 10
 Time Step:  83400, Simulation Time:     36.87 s, Step Size: 0.00046 s, Pressure Iterations: 9
 Time Step:  83500, Simulation Time:     36.92 s, Step Size: 0.00046 s, Pressure Iterations: 10
 Time Step:  83600, Simulation Time:     36.96 s, Step Size: 0.00046 s, Pressure Iterations: 10
 Time Step:  83700, Simulation Time:     37.01 s, Step Size: 0.00044 s, Pressure Iterations: 10
 Time Step:  83800, Simulation Time:     37.05 s, Step Size: 0.00054 s, Pressure Iterations: 10
 Time Step:  83900, Simulation Time:     37.11 s, Step Size: 0.00053 s, Pressure Iterations: 10
 Time Step:  84000, Simulation Time:     37.15 s, Step Size: 0.00042 s, Pressure Iterations: 10
 Time Step:  84100, Simulation Time:     37.20 s, Step Size: 0.00051 s, Pressure Iterations: 10
 Time Step:  84200, Simulation Time:     37.25 s, Step Size: 0.00041 s, Pressure Iterations: 10
 Time Step:  84300, Simulation Time:     37.29 s, Step Size: 0.00045 s, Pressure Iterations: 10
 Time Step:  84400, Simulation Time:     37.33 s, Step Size: 0.00040 s, Pressure Iterations: 10
 Time Step:  84500, Simulation Time:     37.37 s, Step Size: 0.00036 s, Pressure Iterations: 10
 Time Step:  84600, Simulation Time:     37.41 s, Step Size: 0.00043 s, Pressure Iterations: 10
 Time Step:  84700, Simulation Time:     37.46 s, Step Size: 0.00048 s, Pressure Iterations: 10
 Time Step:  84800, Simulation Time:     37.51 s, Step Size: 0.00047 s, Pressure Iterations: 10
 Time Step:  84900, Simulation Time:     37.55 s, Step Size: 0.00047 s, Pressure Iterations: 10
 Time Step:  85000, Simulation Time:     37.59 s, Step Size: 0.00042 s, Pressure Iterations: 10
 Time Step:  85100, Simulation Time:     37.63 s, Step Size: 0.00037 s, Pressure Iterations: 10
 Time Step:  85200, Simulation Time:     37.67 s, Step Size: 0.00040 s, Pressure Iterations: 10
 Time Step:  85300, Simulation Time:     37.72 s, Step Size: 0.00044 s, Pressure Iterations: 10
 Time Step:  85400, Simulation Time:     37.76 s, Step Size: 0.00049 s, Pressure Iterations: 10
 Time Step:  85500, Simulation Time:     37.81 s, Step Size: 0.00053 s, Pressure Iterations: 10
 Time Step:  85600, Simulation Time:     37.86 s, Step Size: 0.00042 s, Pressure Iterations: 10
 Time Step:  85700, Simulation Time:     37.90 s, Step Size: 0.00042 s, Pressure Iterations: 10
 Time Step:  85800, Simulation Time:     37.94 s, Step Size: 0.00037 s, Pressure Iterations: 10
 Time Step:  85900, Simulation Time:     37.98 s, Step Size: 0.00041 s, Pressure Iterations: 10
 Time Step:  86000, Simulation Time:     38.02 s, Step Size: 0.00045 s, Pressure Iterations: 10
 Time Step:  86100, Simulation Time:     38.07 s, Step Size: 0.00040 s, Pressure Iterations: 10
 Time Step:  86200, Simulation Time:     38.11 s, Step Size: 0.00044 s, Pressure Iterations: 10
 Time Step:  86300, Simulation Time:     38.16 s, Step Size: 0.00049 s, Pressure Iterations: 9
 Time Step:  86400, Simulation Time:     38.21 s, Step Size: 0.00048 s, Pressure Iterations: 10
 Time Step:  86500, Simulation Time:     38.25 s, Step Size: 0.00042 s, Pressure Iterations: 10
 Time Step:  86600, Simulation Time:     38.30 s, Step Size: 0.00042 s, Pressure Iterations: 10
 Time Step:  86700, Simulation Time:     38.34 s, Step Size: 0.00041 s, Pressure Iterations: 10
 Time Step:  86800, Simulation Time:     38.38 s, Step Size: 0.00041 s, Pressure Iterations: 10
 Time Step:  86900, Simulation Time:     38.42 s, Step Size: 0.00045 s, Pressure Iterations: 10
 Time Step:  87000, Simulation Time:     38.47 s, Step Size: 0.00049 s, Pressure Iterations: 10
 Time Step:  87100, Simulation Time:     38.52 s, Step Size: 0.00049 s, Pressure Iterations: 8
 Time Step:  87200, Simulation Time:     38.57 s, Step Size: 0.00054 s, Pressure Iterations: 10
 Time Step:  87300, Simulation Time:     38.62 s, Step Size: 0.00048 s, Pressure Iterations: 10
 Time Step:  87400, Simulation Time:     38.66 s, Step Size: 0.00043 s, Pressure Iterations: 10
 Time Step:  87500, Simulation Time:     38.71 s, Step Size: 0.00043 s, Pressure Iterations: 10
 Time Step:  87600, Simulation Time:     38.75 s, Step Size: 0.00043 s, Pressure Iterations: 10
 Time Step:  87700, Simulation Time:     38.79 s, Step Size: 0.00047 s, Pressure Iterations: 10
 Time Step:  87800, Simulation Time:     38.84 s, Step Size: 0.00044 s, Pressure Iterations: 10
 Time Step:  87900, Simulation Time:     38.88 s, Step Size: 0.00048 s, Pressure Iterations: 10
 Time Step:  88000, Simulation Time:     38.93 s, Step Size: 0.00048 s, Pressure Iterations: 10
 Time Step:  88100, Simulation Time:     38.98 s, Step Size: 0.00053 s, Pressure Iterations: 10
 Time Step:  88200, Simulation Time:     39.04 s, Step Size: 0.00053 s, Pressure Iterations: 10
 Time Step:  88300, Simulation Time:     39.09 s, Step Size: 0.00042 s, Pressure Iterations: 10
 Time Step:  88400, Simulation Time:     39.13 s, Step Size: 0.00042 s, Pressure Iterations: 10
 Time Step:  88500, Simulation Time:     39.17 s, Step Size: 0.00042 s, Pressure Iterations: 10
 Time Step:  88600, Simulation Time:     39.21 s, Step Size: 0.00042 s, Pressure Iterations: 9
 Time Step:  88700, Simulation Time:     39.26 s, Step Size: 0.00047 s, Pressure Iterations: 10
 Time Step:  88800, Simulation Time:     39.30 s, Step Size: 0.00047 s, Pressure Iterations: 10
 Time Step:  88900, Simulation Time:     39.35 s, Step Size: 0.00049 s, Pressure Iterations: 10
 Time Step:  89000, Simulation Time:     39.40 s, Step Size: 0.00049 s, Pressure Iterations: 10
 Time Step:  89100, Simulation Time:     39.45 s, Step Size: 0.00049 s, Pressure Iterations: 9
 Time Step:  89200, Simulation Time:     39.50 s, Step Size: 0.00044 s, Pressure Iterations: 9
 Time Step:  89300, Simulation Time:     39.54 s, Step Size: 0.00035 s, Pressure Iterations: 10
 Time Step:  89400, Simulation Time:     39.57 s, Step Size: 0.00038 s, Pressure Iterations: 10
 Time Step:  89500, Simulation Time:     39.61 s, Step Size: 0.00038 s, Pressure Iterations: 10
 Time Step:  89600, Simulation Time:     39.65 s, Step Size: 0.00041 s, Pressure Iterations: 10
 Time Step:  89700, Simulation Time:     39.69 s, Step Size: 0.00046 s, Pressure Iterations: 10
 Time Step:  89800, Simulation Time:     39.74 s, Step Size: 0.00050 s, Pressure Iterations: 10
 Time Step:  89900, Simulation Time:     39.79 s, Step Size: 0.00050 s, Pressure Iterations: 10
 Time Step:  90000, Simulation Time:     39.83 s, Step Size: 0.00040 s, Pressure Iterations: 10
 Time Step:  90100, Simulation Time:     39.87 s, Step Size: 0.00040 s, Pressure Iterations: 10
 Time Step:  90200, Simulation Time:     39.91 s, Step Size: 0.00040 s, Pressure Iterations: 10
 Time Step:  90300, Simulation Time:     39.95 s, Step Size: 0.00044 s, Pressure Iterations: 9
 Time Step:  90400, Simulation Time:     40.00 s, Step Size: 0.00044 s, Pressure Iterations: 10
 Time Step:  90500, Simulation Time:     40.04 s, Step Size: 0.00048 s, Pressure Iterations: 9
 Time Step:  90600, Simulation Time:     40.09 s, Step Size: 0.00053 s, Pressure Iterations: 10
 Time Step:  90700, Simulation Time:     40.15 s, Step Size: 0.00053 s, Pressure Iterations: 10
 Time Step:  90800, Simulation Time:     40.20 s, Step Size: 0.00053 s, Pressure Iterations: 10
 Time Step:  90900, Simulation Time:     40.25 s, Step Size: 0.00048 s, Pressure Iterations: 10
 Time Step:  91000, Simulation Time:     40.29 s, Step Size: 0.00043 s, Pressure Iterations: 9
 Time Step:  91100, Simulation Time:     40.34 s, Step Size: 0.00043 s, Pressure Iterations: 10
 Time Step:  91200, Simulation Time:     40.38 s, Step Size: 0.00043 s, Pressure Iterations: 10
 Time Step:  91300, Simulation Time:     40.42 s, Step Size: 0.00047 s, Pressure Iterations: 10
 Time Step:  91400, Simulation Time:     40.47 s, Step Size: 0.00050 s, Pressure Iterations: 10
 Time Step:  91500, Simulation Time:     40.52 s, Step Size: 0.00050 s, Pressure Iterations: 10
 Time Step:  91600, Simulation Time:     40.57 s, Step Size: 0.00050 s, Pressure Iterations: 10
 Time Step:  91700, Simulation Time:     40.62 s, Step Size: 0.00045 s, Pressure Iterations: 10
 Time Step:  91800, Simulation Time:     40.66 s, Step Size: 0.00044 s, Pressure Iterations: 10
 Time Step:  91900, Simulation Time:     40.70 s, Step Size: 0.00040 s, Pressure Iterations: 10
 Time Step:  92000, Simulation Time:     40.74 s, Step Size: 0.00040 s, Pressure Iterations: 10
 Time Step:  92100, Simulation Time:     40.78 s, Step Size: 0.00040 s, Pressure Iterations: 10
 Time Step:  92200, Simulation Time:     40.82 s, Step Size: 0.00044 s, Pressure Iterations: 10
 Time Step:  92300, Simulation Time:     40.86 s, Step Size: 0.00043 s, Pressure Iterations: 10
 Time Step:  92400, Simulation Time:     40.91 s, Step Size: 0.00047 s, Pressure Iterations: 10
 Time Step:  92500, Simulation Time:     40.96 s, Step Size: 0.00047 s, Pressure Iterations: 10
 Time Step:  92600, Simulation Time:     41.00 s, Step Size: 0.00037 s, Pressure Iterations: 9
 Time Step:  92700, Simulation Time:     41.04 s, Step Size: 0.00045 s, Pressure Iterations: 10
 Time Step:  92800, Simulation Time:     41.08 s, Step Size: 0.00040 s, Pressure Iterations: 10
 Time Step:  92900, Simulation Time:     41.12 s, Step Size: 0.00044 s, Pressure Iterations: 10
 Time Step:  93000, Simulation Time:     41.17 s, Step Size: 0.00044 s, Pressure Iterations: 10
 Time Step:  93100, Simulation Time:     41.21 s, Step Size: 0.00049 s, Pressure Iterations: 10
 Time Step:  93200, Simulation Time:     41.26 s, Step Size: 0.00054 s, Pressure Iterations: 10
 Time Step:  93300, Simulation Time:     41.32 s, Step Size: 0.00048 s, Pressure Iterations: 10
 Time Step:  93400, Simulation Time:     41.36 s, Step Size: 0.00042 s, Pressure Iterations: 10
 Time Step:  93500, Simulation Time:     41.40 s, Step Size: 0.00038 s, Pressure Iterations: 10
 Time Step:  93600, Simulation Time:     41.44 s, Step Size: 0.00042 s, Pressure Iterations: 10
 Time Step:  93700, Simulation Time:     41.48 s, Step Size: 0.00041 s, Pressure Iterations: 10
 Time Step:  93800, Simulation Time:     41.52 s, Step Size: 0.00045 s, Pressure Iterations: 10
 Time Step:  93900, Simulation Time:     41.56 s, Step Size: 0.00048 s, Pressure Iterations: 10
 Time Step:  94000, Simulation Time:     41.61 s, Step Size: 0.00053 s, Pressure Iterations: 10
 Time Step:  94100, Simulation Time:     41.67 s, Step Size: 0.00053 s, Pressure Iterations: 10
 Time Step:  94200, Simulation Time:     41.72 s, Step Size: 0.00053 s, Pressure Iterations: 10
 Time Step:  94300, Simulation Time:     41.77 s, Step Size: 0.00042 s, Pressure Iterations: 10
 Time Step:  94400, Simulation Time:     41.81 s, Step Size: 0.00046 s, Pressure Iterations: 10
 Time Step:  94500, Simulation Time:     41.86 s, Step Size: 0.00045 s, Pressure Iterations: 10
 Time Step:  94600, Simulation Time:     41.90 s, Step Size: 0.00044 s, Pressure Iterations: 10
 Time Step:  94700, Simulation Time:     41.95 s, Step Size: 0.00049 s, Pressure Iterations: 10
 Time Step:  94800, Simulation Time:     42.00 s, Step Size: 0.00048 s, Pressure Iterations: 10
 Time Step:  94900, Simulation Time:     42.04 s, Step Size: 0.00048 s, Pressure Iterations: 10
 Time Step:  95000, Simulation Time:     42.09 s, Step Size: 0.00052 s, Pressure Iterations: 10
 Time Step:  95100, Simulation Time:     42.14 s, Step Size: 0.00047 s, Pressure Iterations: 9
 Time Step:  95200, Simulation Time:     42.19 s, Step Size: 0.00044 s, Pressure Iterations: 10
 Time Step:  95300, Simulation Time:     42.23 s, Step Size: 0.00043 s, Pressure Iterations: 10
 Time Step:  95400, Simulation Time:     42.27 s, Step Size: 0.00047 s, Pressure Iterations: 10
 Time Step:  95500, Simulation Time:     42.32 s, Step Size: 0.00045 s, Pressure Iterations: 10
 Time Step:  95600, Simulation Time:     42.36 s, Step Size: 0.00045 s, Pressure Iterations: 10
 Time Step:  95700, Simulation Time:     42.41 s, Step Size: 0.00049 s, Pressure Iterations: 10
 Time Step:  95800, Simulation Time:     42.46 s, Step Size: 0.00048 s, Pressure Iterations: 10
 Time Step:  95900, Simulation Time:     42.52 s, Step Size: 0.00052 s, Pressure Iterations: 10
