
 Fire Dynamics Simulator

 Current Date     : August 15, 2023  11:58:52
 Revision         : FDS-6.8.0-532-g5395454-master
 Revision Date    : Mon Aug 14 12:40:59 2023 -0400
 Compiler         : ifort version 2021.7.1
 Compilation Date : Aug 14, 2023 13:21:40

 MPI Enabled;    Number of MPI Processes:       8
 OpenMP Disabled

 MPI version: 3.1
 MPI library version: Intel(R) MPI Library 2021.7 for Linux* OS


 Job TITLE        : (Concatenated) NIST Ethanol Pool, 2 cm resolution
 Job ID string    : NIST_Ethanol_GEOM_Predicted_2cm_cat


 Grid Dimensions, Mesh     1

   Cells in the X Direction            32
   Cells in the Y Direction            32
   Cells in the Z Direction            48
   Number of Grid Cells             49152


 Physical Dimensions, Mesh     1

   Length (m)                       0.640
   Width  (m)                       0.640
   Height (m)                       0.960
   Initial Time Step (s)            0.023

 Grid Dimensions, Mesh     2

   Cells in the X Direction            32
   Cells in the Y Direction            32
   Cells in the Z Direction            48
   Number of Grid Cells             49152


 Physical Dimensions, Mesh     2

   Length (m)                       0.640
   Width  (m)                       0.640
   Height (m)                       0.960
   Initial Time Step (s)            0.023

 Grid Dimensions, Mesh     3

   Cells in the X Direction            32
   Cells in the Y Direction            32
   Cells in the Z Direction            48
   Number of Grid Cells             49152


 Physical Dimensions, Mesh     3

   Length (m)                       0.640
   Width  (m)                       0.640
   Height (m)                       0.960
   Initial Time Step (s)            0.023

 Grid Dimensions, Mesh     4

   Cells in the X Direction            32
   Cells in the Y Direction            32
   Cells in the Z Direction            48
   Number of Grid Cells             49152


 Physical Dimensions, Mesh     4

   Length (m)                       0.640
   Width  (m)                       0.640
   Height (m)                       0.960
   Initial Time Step (s)            0.023

 Grid Dimensions, Mesh     5

   Cells in the X Direction            32
   Cells in the Y Direction            32
   Cells in the Z Direction            48
   Number of Grid Cells             49152


 Physical Dimensions, Mesh     5

   Length (m)                       0.640
   Width  (m)                       0.640
   Height (m)                       0.960
   Initial Time Step (s)            0.023

 Grid Dimensions, Mesh     6

   Cells in the X Direction            32
   Cells in the Y Direction            32
   Cells in the Z Direction            48
   Number of Grid Cells             49152


 Physical Dimensions, Mesh     6

   Length (m)                       0.640
   Width  (m)                       0.640
   Height (m)                       0.960
   Initial Time Step (s)            0.023

 Grid Dimensions, Mesh     7

   Cells in the X Direction            32
   Cells in the Y Direction            32
   Cells in the Z Direction            48
   Number of Grid Cells             49152


 Physical Dimensions, Mesh     7

   Length (m)                       0.640
   Width  (m)                       0.640
   Height (m)                       0.960
   Initial Time Step (s)            0.023

 Grid Dimensions, Mesh     8

   Cells in the X Direction            32
   Cells in the Y Direction            32
   Cells in the Z Direction            48
   Number of Grid Cells             49152


 Physical Dimensions, Mesh     8

   Length (m)                       0.640
   Width  (m)                       0.640
   Height (m)                       0.960
   Initial Time Step (s)            0.023

 Total Number of Grid Cells        393216


 Maximum Cell Aspect Ratio          1.000
 CFL Velocity Norm                      2


 Miscellaneous Parameters

   Simulation Start Time (s)          0.0
   Simulation End Time (s)           60.0
   Background Pressure (Pa)     101325.00
   Ambient Temperature (C)          16.00

   3D Cartesian
   VLES Calculation
   Eddy Viscosity Model:  Deardorff (C_DEARDORFF = 0.10)
   Surface INERT Eddy Viscosity Model:  WALE (C_WALE = 0.60)
   Surface PAN Eddy Viscosity Model:  WALE (C_WALE = 0.60)
   Surface POOL Eddy Viscosity Model:  WALE (C_WALE = 0.60)
   Turbulent Prandtl Number:         0.50
   Turbulent Schmidt Number:         0.50


 Pressure solver information

   Solver:                          ULMAT
   Velocity tolerance (m/s):    1.000E-02
   Press eqn res tol (1/s^2):   5.000E+04
   Max pressure iterations:            10


 Background Stratification

      Z (m)     P_0 (Pa)    TMP_0 (C)
   ------------------------------------
        0.69    101316.78     16.00
        0.67    101317.02     16.00
        0.65    101317.26     16.00
        0.63    101317.49     16.00
        0.61    101317.73     16.00
        0.59    101317.97     16.00
        0.57    101318.21     16.00
        0.55    101318.45     16.00
        0.53    101318.69     16.00
        0.51    101318.92     16.00
        0.49    101319.16     16.00
        0.47    101319.40     16.00
        0.45    101319.64     16.00
        0.43    101319.88     16.00
        0.41    101320.11     16.00
        0.39    101320.35     16.00
        0.37    101320.59     16.00
        0.35    101320.83     16.00
        0.33    101321.07     16.00
        0.31    101321.31     16.00
        0.29    101321.54     16.00
        0.27    101321.78     16.00
        0.25    101322.02     16.00
        0.23    101322.26     16.00
        0.21    101322.50     16.00
        0.19    101322.73     16.00
        0.17    101322.97     16.00
        0.15    101323.21     16.00
        0.13    101323.45     16.00
        0.11    101323.68     16.00
        0.09    101323.93     16.00
        0.07    101324.16     16.00
        0.05    101324.40     16.00
        0.03    101324.64     16.00
        0.01    101324.88     16.00
       -0.01    101325.11     16.00
       -0.03    101325.35     16.00
       -0.05    101325.59     16.00
       -0.07    101325.83     16.00
       -0.09    101326.07     16.00
       -0.11    101326.30     16.00
       -0.13    101326.54     16.00
       -0.15    101326.78     16.00
       -0.17    101327.02     16.00
       -0.19    101327.26     16.00
       -0.21    101327.50     16.00
       -0.23    101327.73     16.00
       -0.25    101327.97     16.00


 Mass Fraction Transformation Matrix to Convert Species Mixtures (Columns) to Primitive Species (Rows)

                         AIR       ETHANOL   INTERMED  PRODUCTS
   NITROGEN              0.764811  0.000000  0.598449  0.687548
   OXYGEN                0.231707  0.000000  0.000000  0.000000
   CARBON DIOXIDE        0.000593  0.000000  0.000464  0.190430
   WATER VAPOR           0.002889  0.000000  0.129854  0.121114
   CARBON MONOXIDE       0.000000  0.000000  0.251284  0.000101
   SOOT                  0.000000  0.000000  0.005671  0.000808
   HYDROGEN              0.000000  0.000000  0.014278  0.000000
   HYDROGEN CYANIDE      0.000000  0.000000  0.000000  0.000000
   ETHANOL               0.000000  1.000000  0.000000  0.000000


 Primitive Species Information

   NITROGEN
   Gas Species
   Molecular Weight (g/mol)                28.01340
   Ambient Density (kg/m^3)                1.181
           Enthalpy of Formation (J/kg)  0.000E+00

   OXYGEN
   Gas Species
   Molecular Weight (g/mol)                31.99880
   Ambient Density (kg/m^3)                1.349
           Enthalpy of Formation (J/kg)  0.000E+00

   CARBON DIOXIDE
   Gas Species
   Molecular Weight (g/mol)                44.00950
   Ambient Density (kg/m^3)                1.855
           Enthalpy of Formation (J/kg) -8.941E+06

   WATER VAPOR
   Gas Species
   Molecular Weight (g/mol)                18.01528
   Ambient Density (kg/m^3)                0.759
           Enthalpy of Formation (J/kg) -1.342E+07

   CARBON MONOXIDE
   Gas Species
   Molecular Weight (g/mol)                28.01010
   Ambient Density (kg/m^3)                1.181
           Enthalpy of Formation (J/kg) -3.946E+06

   SOOT
   Gas Species
   Molecular Weight (g/mol)                12.01070
   Ambient Density (kg/m^3)                0.506
           Enthalpy of Formation (J/kg)  0.000E+00

   HYDROGEN
   Gas Species
   Molecular Weight (g/mol)                 2.01588
   Ambient Density (kg/m^3)                0.085
           Enthalpy of Formation (J/kg)  0.000E+00

   HYDROGEN CYANIDE
   Gas Species
   Molecular Weight (g/mol)                27.02534
   Ambient Density (kg/m^3)                1.139
           Enthalpy of Formation (J/kg)  4.924E+06

   ETHANOL
   Gas Species
   Molecular Weight (g/mol)                46.06844
   Ambient Density (kg/m^3)                1.942
           Enthalpy of Formation (J/kg) -5.100E+06


 Tracked (Lumped) Species Information

   AIR
   Molecular Weight (g/mol)            28.80470
   Ambient Density (kg/m^3)            1.214
   Initial Mass Fraction               1.000
   Enthalpy of Formation (J/kg)     -4.408E+04

   Sub Species                    Mass Fraction     Mole Fraction
   NITROGEN                       7.648113E-01      7.864151E-01
   OXYGEN                         2.317067E-01      2.085779E-01
   CARBON DIOXIDE                 5.932813E-04      3.883091E-04
   WATER VAPOR                    2.888634E-03      4.618647E-03
 
     Viscosity (kg/m/s) Ambient,  289 K:  1.780E-05
                                  500 K:  2.616E-05
                                 1000 K:  4.127E-05
                                 1500 K:  5.372E-05
                                 2000 K:  6.475E-05
   Therm. Cond. (W/m/K) Ambient,  289 K:  2.532E-02
                                  500 K:  3.815E-02
                                 1000 K:  6.680E-02
                                 1500 K:  9.232E-02
                                 2000 K:  1.150E-01
        Enthalpy (J/kg) Ambient,  289 K: -5.320E+04
                                  500 K:  1.626E+05
                                 1000 K:  7.109E+05
                                 1500 K:  1.307E+06
                                 2000 K:  1.930E+06
    Spec. Heat (J/kg/K) Ambient,  289 K:  1.013E+03
                                  500 K:  1.039E+03
                                 1000 K:  1.153E+03
                                 1500 K:  1.224E+03
                                 2000 K:  1.265E+03
   Diff. Coeff. (m^2/s) Ambient,  289 K:  1.943E-05
                                  500 K:  4.957E-05
                                 1000 K:  1.578E-04
                                 1500 K:  3.091E-04
                                 2000 K:  4.977E-04
 Gibbs Energy Amb. (kJ/mol),  289 K: -5.722E+01
                                  500 K: -9.997E+01
                                 1000 K: -2.109E+02
                                 1500 K: -3.305E+02
                                 2000 K: -4.560E+02

   ETHANOL
   Molecular Weight (g/mol)            46.06844
   Ambient Density (kg/m^3)            1.942
   Initial Mass Fraction               0.000
   Enthalpy of Formation (J/kg)     -5.100E+06

   Sub Species                    Mass Fraction     Mole Fraction
   ETHANOL                        1.000000E+00      1.000000E+00
 
     Viscosity (kg/m/s) Ambient,  289 K:  8.363E-06
                                  500 K:  1.448E-05
                                 1000 K:  2.625E-05
                                 1500 K:  3.555E-05
                                 2000 K:  4.346E-05
   Therm. Cond. (W/m/K) Ambient,  289 K:  1.381E-02
                                  500 K:  3.586E-02
                                 1000 K:  9.678E-02
                                 1500 K:  1.525E-01
                                 2000 K:  2.002E-01
        Enthalpy (J/kg) Ambient,  289 K: -5.113E+06
                                  500 K: -4.745E+06
                                 1000 K: -3.420E+06
                                 1500 K: -1.730E+06
                                 2000 K:  1.444E+05
    Spec. Heat (J/kg/K) Ambient,  289 K:  1.387E+03
                                  500 K:  2.080E+03
                                 1000 K:  3.097E+03
                                 1500 K:  3.604E+03
                                 2000 K:  3.868E+03
   Diff. Coeff. (m^2/s) Ambient,  289 K:  1.142E-05
                                  500 K:  3.087E-05
                                 1000 K:  1.018E-04
                                 1500 K:  2.012E-04
                                 2000 K:  3.247E-04
 Gibbs Energy Amb. (kJ/mol),  289 K: -3.160E+02
                                  500 K: -3.795E+02
                                 1000 K: -5.621E+02
                                 1500 K: -7.807E+02
                                 2000 K: -1.027E+03

   INTERMEDIATE PRODUCTS
   Molecular Weight (g/mol)            22.16932
   Ambient Density (kg/m^3)            0.934
   Initial Mass Fraction               0.000
   Enthalpy of Formation (J/kg)     -2.739E+06

   Sub Species                    Mass Fraction     Mole Fraction
   NITROGEN                       5.984492E-01      4.736023E-01
   CARBON DIOXIDE                 4.642304E-04      2.338512E-04
   WATER VAPOR                    1.298539E-01      1.597962E-01
   CARBON MONOXIDE                2.512841E-01      1.988853E-01
   SOOT                           5.671070E-03      1.046765E-02
   HYDROGEN                       1.427752E-02      1.570147E-01
   HYDROGEN CYANIDE               0.000000E+00      0.000000E+00
 
     Viscosity (kg/m/s) Ambient,  289 K:  1.571E-05
                                  500 K:  2.339E-05
                                 1000 K:  3.803E-05
                                 1500 K:  5.029E-05
                                 2000 K:  6.113E-05
   Therm. Cond. (W/m/K) Ambient,  289 K:  3.167E-02
                                  500 K:  4.800E-02
                                 1000 K:  8.553E-02
                                 1500 K:  1.221E-01
                                 2000 K:  1.558E-01
        Enthalpy (J/kg) Ambient,  289 K: -2.751E+06
                                  500 K: -2.467E+06
                                 1000 K: -1.746E+06
                                 1500 K: -9.538E+05
                                 2000 K: -1.114E+05
    Spec. Heat (J/kg/K) Ambient,  289 K:  1.333E+03
                                  500 K:  1.368E+03
                                 1000 K:  1.518E+03
                                 1500 K:  1.642E+03
                                 2000 K:  1.722E+03
   Diff. Coeff. (m^2/s) Ambient,  289 K:  2.771E-05
                                  500 K:  7.139E-05
                                 1000 K:  2.291E-04
                                 1500 K:  4.497E-04
                                 2000 K:  7.250E-04
 Gibbs Energy Amb. (kJ/mol),  289 K: -1.145E+02
                                  500 K: -1.565E+02
                                 1000 K: -2.657E+02
                                 1500 K: -3.836E+02
                                 2000 K: -5.077E+02

   PRODUCTS
   Molecular Weight (g/mol)            28.03928
   Ambient Density (kg/m^3)            1.182
   Initial Mass Fraction               0.000
   Enthalpy of Formation (J/kg)     -3.329E+06

   Sub Species                    Mass Fraction     Mole Fraction
   NITROGEN                       6.875477E-01      6.881828E-01
   CARBON DIOXIDE                 1.904295E-01      1.213262E-01
   WATER VAPOR                    1.211136E-01      1.885031E-01
   CARBON MONOXIDE                1.010232E-04      1.011284E-04
   SOOT                           8.081854E-04      1.886729E-03
   HYDROGEN CYANIDE               0.000000E+00      0.000000E+00
 
     Viscosity (kg/m/s) Ambient,  289 K:  1.579E-05
                                  500 K:  2.372E-05
                                 1000 K:  3.886E-05
                                 1500 K:  5.145E-05
                                 2000 K:  6.254E-05
   Therm. Cond. (W/m/K) Ambient,  289 K:  2.295E-02
                                  500 K:  3.606E-02
                                 1000 K:  6.745E-02
                                 1500 K:  9.725E-02
                                 2000 K:  1.241E-01
        Enthalpy (J/kg) Ambient,  289 K: -3.339E+06
                                  500 K: -3.101E+06
                                 1000 K: -2.482E+06
                                 1500 K: -1.793E+06
                                 2000 K: -1.062E+06
    Spec. Heat (J/kg/K) Ambient,  289 K:  1.100E+03
                                  500 K:  1.157E+03
                                 1000 K:  1.317E+03
                                 1500 K:  1.428E+03
                                 2000 K:  1.494E+03
   Diff. Coeff. (m^2/s) Ambient,  289 K:  1.904E-05
                                  500 K:  4.968E-05
                                 1000 K:  1.608E-04
                                 1500 K:  3.165E-04
                                 2000 K:  5.106E-04
 Gibbs Energy Amb. (kJ/mol),  289 K: -1.607E+02
                                  500 K: -2.037E+02
                                 1000 K: -3.163E+02
                                 1500 K: -4.388E+02
                                 2000 K: -5.681E+02


 Gas Phase Reaction Information

   Reaction 1

      Priority:                                                               1

      Fuel                                           Heat of Combustion (kJ/kg)
      ETHANOL                                                         7332.6961
      2-step reaction,  Total Heat of Combustion                     27459.3140

      Primitive Species Stoich. Coeff.
      Species ID                                                          Molar
      NITROGEN                                                         0.000000
      OXYGEN                                                          -1.200000
      WATER VAPOR                                                      1.500000
      CARBON MONOXIDE                                                  1.900000
      SOOT                                                             0.100000
      HYDROGEN                                                         1.500000
      ETHANOL                                                         -1.000000

      Tracked (Lumped) Species Stoich. Coeff.
      Species ID                                             Molar         Mass
      AIR                                                -5.753245    -3.597268
      ETHANOL                                            -1.000000    -1.000000
      INTERMEDIATE PRODUCTS                               9.553245     4.597268

      Reaction Kinetics

      Fast chemistry

      ODE Solver:  EXPLICIT EULER

      Extinction Model:  EXTINCTION 1
      Auto-Ignition Temperature (C):            -273.1
      Critical Flame Temperature (C):           1397.0

      Prescribed Radiative Fraction:             0.260

   Reaction 2

      Priority:                                                               2

      Fuel                                           Heat of Combustion (kJ/kg)
      INTERMEDIATE PRODUCTS                                           4377.9521

      Primitive Species Stoich. Coeff.
      Species ID                                                          Molar
      OXYGEN                                                          -0.185120
      CARBON DIOXIDE                                                   0.205969
      WATER VAPOR                                                      0.157015
      CARBON MONOXIDE                                                 -0.198713
      SOOT                                                            -0.007256
      HYDROGEN                                                        -0.157015

      Tracked (Lumped) Species Stoich. Coeff.
      Species ID                                             Molar         Mass
      AIR                                                -0.887532    -1.153174
      INTERMEDIATE PRODUCTS                              -1.000000    -1.000000
      PRODUCTS                                            1.702412     2.153174

      Reaction Kinetics

      Fast chemistry

      ODE Solver:  EXPLICIT EULER

      Prescribed Radiative Fraction:             0.260


 Material Information

   1 STEEL
     Emissivity:                                  0.800
     Density (kg/m3):                            7800.0
     Specific Heat (kJ/kg/K) Ambient,  289 K:  4.650E-01
                                       350 K:  4.650E-01
                                       500 K:  4.650E-01
                                       800 K:  4.650E-01
     Therm. Cond. (W/m/K) Ambient,     289 K:  5.400E+01
                                       350 K:  5.400E+01
                                       500 K:  5.400E+01
                                       800 K:  5.400E+01
     Enthalpy (kJ/kg) Ambient,         289 K:  1.344E+02
                                       350 K:  1.628E+02
                                       500 K:  2.325E+02
                                       800 K:  3.720E+02

   2 ETHANOL LIQUID
     Emissivity:                                  1.000
     Density (kg/m3):                             794.0
     Specific Heat (kJ/kg/K) Ambient,  289 K:  2.440E+00
                                       350 K:  2.440E+00
                                       500 K:  2.440E+00
                                       800 K:  2.440E+00
     Therm. Cond. (W/m/K) Ambient,     289 K:  1.700E-01
                                       350 K:  1.700E-01
                                       500 K:  1.700E-01
                                       800 K:  1.700E-01
     Enthalpy (kJ/kg) Ambient,         289 K: -6.009E+03
                                       350 K: -5.860E+03
                                       500 K: -5.494E+03
                                       800 K: -4.762E+03
     Absorption coefficient (1/m)  1534.30
     Liquid evaporation reaction
        Gaseous Yields:
        AIR                                                         :     0.00
        ETHANOL                                                     :     1.00
        INTERMEDIATE PRODUCTS                                       :     0.00
        PRODUCTS                                                    :     0.00
        Boiling temperature (C):    78.35
        H_R (kJ/kg)            :  8.962E+02


 Surface Conditions

   0 INERT (DEFAULT)

   1 PAN
     Material List
          1  STEEL
     Layer  1
        Thickness   (m):  0.00300
        Density (kg/m3):  7800.00
        STEEL, Mass fraction:    1.00
     Reaction products considered from the first  0.50 layers.
     Total surface density    23.400 kg/m2
     Solid Phase Node, Layer, Coordinates(m):
                    0      1       0.0000000
                    1      1       0.0030000
     Exposed Backing

   2 POOL
     Material List
          1  ETHANOL LIQUID
     Layer  1
        Thickness   (m):  0.15000
        Density (kg/m3):   794.00
        ETHANOL LIQUID, Mass fraction:    1.00
     Reaction products considered from the first  0.50 layers.
     Total surface density   119.100 kg/m2
     Solid Phase Node, Layer, Coordinates(m):
                    0      1       0.0000000
                    1      1       0.0002941
                    2      1       0.0008824
                    3      1       0.0020588
                    4      1       0.0044118
                    5      1       0.0091176
                    6      1       0.0185294
                    7      1       0.0373529
                    8      1       0.0750000
                    9      1       0.1126471
                   10      1       0.1314706
                   11      1       0.1408824
                   12      1       0.1455882
                   13      1       0.1479412
                   14      1       0.1491176
                   15      1       0.1497059
                   16      1       0.1500000
     Exposed Backing

   3 OPEN
     Passive Vent to Atmosphere

   4 MIRROR
     Symmetry Plane

   5 INTERPOLATED

   6 PERIODIC

   7 HVAC

   8 MASSLESS TRACER

   9 DROPLET

  10 MASSLESS TARGET

  11 PERIODIC FLOW ONLY


 Lagrangian Particle Classes


 PROPerty Information

   1 TC
     Smokeview ID                sensor


 Cut-off Density and Temperature

    Minimum Temperature:  -259.1 C
    Maximum Temperature:  2726.8 C
    Minimum Density:  1.214E-01 kg/m3
    Maximum Density:  8.020E+01 kg/m3


 Device Information

   1 ID: MLRPUA
     QUANTITY: BURNING RATE
     Coordinates (X,Y,Z):   -2.000000E-04   -2.000000E-04    4.500000E-02
     SPATIAL STATISTIC: MEAN
     TEMPORAL STATISTIC: TIME AVERAGE
   2 ID: HEAT_FLUX
     QUANTITY: TOTAL HEAT FLUX
     Coordinates (X,Y,Z):   -2.000000E-04   -2.000000E-04    4.500000E-02
     SPATIAL STATISTIC: MEAN
     TEMPORAL STATISTIC: TIME AVERAGE
   3 ID: MLRPUA_ideal
     QUANTITY: TOTAL HEAT FLUX
     Coordinates (X,Y,Z):   -2.000000E-04   -2.000000E-04    4.500000E-02
     SPATIAL STATISTIC: MEAN
     TEMPORAL STATISTIC: TIME AVERAGE
   4 ID: T_SURF_MEAN
     QUANTITY: WALL TEMPERATURE
     Coordinates (X,Y,Z):   -2.000000E-04   -2.000000E-04    4.500000E-02
     SPATIAL STATISTIC: MEAN
     TEMPORAL STATISTIC: TIME AVERAGE
   5 ID: T_SURF_MAX
     QUANTITY: WALL TEMPERATURE
     Coordinates (X,Y,Z):   -2.000000E-04   -2.000000E-04    4.500000E-02
     SPATIAL STATISTIC: MAX
     TEMPORAL STATISTIC: TIME AVERAGE
   6 ID: TC_CL
     QUANTITY: THERMOCOUPLE
     Coordinates (X,Y,Z):    1.000000E-03    1.000000E-03    1.000000E-02
     TEMPORAL STATISTIC: RUNNING AVERAGE
  Property ID: TC
   7 ID: TC_CL
     QUANTITY: THERMOCOUPLE
     Coordinates (X,Y,Z):    1.000000E-03    1.000000E-03    3.000000E-02
     TEMPORAL STATISTIC: RUNNING AVERAGE
  Property ID: TC
   8 ID: TC_CL
     QUANTITY: THERMOCOUPLE
     Coordinates (X,Y,Z):    1.000000E-03    1.000000E-03    5.000000E-02
     TEMPORAL STATISTIC: RUNNING AVERAGE
  Property ID: TC
   9 ID: TC_CL
     QUANTITY: THERMOCOUPLE
     Coordinates (X,Y,Z):    1.000000E-03    1.000000E-03    7.000000E-02
     TEMPORAL STATISTIC: RUNNING AVERAGE
  Property ID: TC
  10 ID: TC_CL
     QUANTITY: THERMOCOUPLE
     Coordinates (X,Y,Z):    1.000000E-03    1.000000E-03    9.000000E-02
     TEMPORAL STATISTIC: RUNNING AVERAGE
  Property ID: TC
  11 ID: TC_CL
     QUANTITY: THERMOCOUPLE
     Coordinates (X,Y,Z):    1.000000E-03    1.000000E-03    1.100000E-01
     TEMPORAL STATISTIC: RUNNING AVERAGE
  Property ID: TC
  12 ID: TC_CL
     QUANTITY: THERMOCOUPLE
     Coordinates (X,Y,Z):    1.000000E-03    1.000000E-03    1.300000E-01
     TEMPORAL STATISTIC: RUNNING AVERAGE
  Property ID: TC
  13 ID: TC_CL
     QUANTITY: THERMOCOUPLE
     Coordinates (X,Y,Z):    1.000000E-03    1.000000E-03    1.500000E-01
     TEMPORAL STATISTIC: RUNNING AVERAGE
  Property ID: TC
  14 ID: TC_CL
     QUANTITY: THERMOCOUPLE
     Coordinates (X,Y,Z):    1.000000E-03    1.000000E-03    1.700000E-01
     TEMPORAL STATISTIC: RUNNING AVERAGE
  Property ID: TC
  15 ID: TC_CL
     QUANTITY: THERMOCOUPLE
     Coordinates (X,Y,Z):    1.000000E-03    1.000000E-03    1.900000E-01
     TEMPORAL STATISTIC: RUNNING AVERAGE
  Property ID: TC
  16 ID: TC_CL
     QUANTITY: THERMOCOUPLE
     Coordinates (X,Y,Z):    1.000000E-03    1.000000E-03    2.100000E-01
     TEMPORAL STATISTIC: RUNNING AVERAGE
  Property ID: TC
  17 ID: TC_CL
     QUANTITY: THERMOCOUPLE
     Coordinates (X,Y,Z):    1.000000E-03    1.000000E-03    2.300000E-01
     TEMPORAL STATISTIC: RUNNING AVERAGE
  Property ID: TC
  18 ID: TC_CL
     QUANTITY: THERMOCOUPLE
     Coordinates (X,Y,Z):    1.000000E-03    1.000000E-03    2.500000E-01
     TEMPORAL STATISTIC: RUNNING AVERAGE
  Property ID: TC
  19 ID: TC_CL
     QUANTITY: THERMOCOUPLE
     Coordinates (X,Y,Z):    1.000000E-03    1.000000E-03    2.700000E-01
     TEMPORAL STATISTIC: RUNNING AVERAGE
  Property ID: TC
  20 ID: TC_CL
     QUANTITY: THERMOCOUPLE
     Coordinates (X,Y,Z):    1.000000E-03    1.000000E-03    2.900000E-01
     TEMPORAL STATISTIC: RUNNING AVERAGE
  Property ID: TC
  21 ID: TC_CL
     QUANTITY: THERMOCOUPLE
     Coordinates (X,Y,Z):    1.000000E-03    1.000000E-03    3.100000E-01
     TEMPORAL STATISTIC: RUNNING AVERAGE
  Property ID: TC
  22 ID: TC_CL
     QUANTITY: THERMOCOUPLE
     Coordinates (X,Y,Z):    1.000000E-03    1.000000E-03    3.300000E-01
     TEMPORAL STATISTIC: RUNNING AVERAGE
  Property ID: TC
  23 ID: TC_CL
     QUANTITY: THERMOCOUPLE
     Coordinates (X,Y,Z):    1.000000E-03    1.000000E-03    3.500000E-01
     TEMPORAL STATISTIC: RUNNING AVERAGE
  Property ID: TC
  24 ID: TC_CL
     QUANTITY: THERMOCOUPLE
     Coordinates (X,Y,Z):    1.000000E-03    1.000000E-03    3.700000E-01
     TEMPORAL STATISTIC: RUNNING AVERAGE
  Property ID: TC
  25 ID: TC_CL
     QUANTITY: THERMOCOUPLE
     Coordinates (X,Y,Z):    1.000000E-03    1.000000E-03    3.900000E-01
     TEMPORAL STATISTIC: RUNNING AVERAGE
  Property ID: TC
  26 ID: TC_CL
     QUANTITY: THERMOCOUPLE
     Coordinates (X,Y,Z):    1.000000E-03    1.000000E-03    4.100000E-01
     TEMPORAL STATISTIC: RUNNING AVERAGE
  Property ID: TC
  27 ID: TC_CL
     QUANTITY: THERMOCOUPLE
     Coordinates (X,Y,Z):    1.000000E-03    1.000000E-03    4.300000E-01
     TEMPORAL STATISTIC: RUNNING AVERAGE
  Property ID: TC
  28 ID: TC_CL
     QUANTITY: THERMOCOUPLE
     Coordinates (X,Y,Z):    1.000000E-03    1.000000E-03    4.500000E-01
     TEMPORAL STATISTIC: RUNNING AVERAGE
  Property ID: TC
  29 ID: TC_CL
     QUANTITY: THERMOCOUPLE
     Coordinates (X,Y,Z):    1.000000E-03    1.000000E-03    4.700000E-01
     TEMPORAL STATISTIC: RUNNING AVERAGE
  Property ID: TC
  30 ID: TC_CL
     QUANTITY: THERMOCOUPLE
     Coordinates (X,Y,Z):    1.000000E-03    1.000000E-03    4.900000E-01
     TEMPORAL STATISTIC: RUNNING AVERAGE
  Property ID: TC
  31 ID: TC_CL
     QUANTITY: THERMOCOUPLE
     Coordinates (X,Y,Z):    1.000000E-03    1.000000E-03    5.100000E-01
     TEMPORAL STATISTIC: RUNNING AVERAGE
  Property ID: TC
  32 ID: TC_CL
     QUANTITY: THERMOCOUPLE
     Coordinates (X,Y,Z):    1.000000E-03    1.000000E-03    5.300000E-01
     TEMPORAL STATISTIC: RUNNING AVERAGE
  Property ID: TC
  33 ID: TC_CL
     QUANTITY: THERMOCOUPLE
     Coordinates (X,Y,Z):    1.000000E-03    1.000000E-03    5.500000E-01
     TEMPORAL STATISTIC: RUNNING AVERAGE
  Property ID: TC
  34 ID: TC_CL
     QUANTITY: THERMOCOUPLE
     Coordinates (X,Y,Z):    1.000000E-03    1.000000E-03    5.700000E-01
     TEMPORAL STATISTIC: RUNNING AVERAGE
  Property ID: TC
  35 ID: TC_CL
     QUANTITY: THERMOCOUPLE
     Coordinates (X,Y,Z):    1.000000E-03    1.000000E-03    5.900000E-01
     TEMPORAL STATISTIC: RUNNING AVERAGE
  Property ID: TC
  36 ID: TC_CL
     QUANTITY: THERMOCOUPLE
     Coordinates (X,Y,Z):    1.000000E-03    1.000000E-03    6.100000E-01
     TEMPORAL STATISTIC: RUNNING AVERAGE
  Property ID: TC
  37 ID: TC_CL
     QUANTITY: THERMOCOUPLE
     Coordinates (X,Y,Z):    1.000000E-03    1.000000E-03    6.300000E-01
     TEMPORAL STATISTIC: RUNNING AVERAGE
  Property ID: TC
  38 ID: TC_CL
     QUANTITY: THERMOCOUPLE
     Coordinates (X,Y,Z):    1.000000E-03    1.000000E-03    6.500000E-01
     TEMPORAL STATISTIC: RUNNING AVERAGE
  Property ID: TC
  39 ID: TC_CL
     QUANTITY: THERMOCOUPLE
     Coordinates (X,Y,Z):    1.000000E-03    1.000000E-03    6.700000E-01
     TEMPORAL STATISTIC: RUNNING AVERAGE
  Property ID: TC
  40 ID: TC_CL
     QUANTITY: THERMOCOUPLE
     Coordinates (X,Y,Z):    1.000000E-03    1.000000E-03    6.900000E-01
     TEMPORAL STATISTIC: RUNNING AVERAGE
  Property ID: TC
  41 ID: TC_CL
     QUANTITY: THERMOCOUPLE
     Coordinates (X,Y,Z):    1.000000E-03    1.000000E-03    7.100000E-01
     TEMPORAL STATISTIC: RUNNING AVERAGE
  Property ID: TC
  42 ID: TC_CL
     QUANTITY: THERMOCOUPLE
     Coordinates (X,Y,Z):    1.000000E-03    1.000000E-03    7.300000E-01
     TEMPORAL STATISTIC: RUNNING AVERAGE
  Property ID: TC
  43 ID: TC_CL
     QUANTITY: THERMOCOUPLE
     Coordinates (X,Y,Z):    1.000000E-03    1.000000E-03    7.500000E-01
     TEMPORAL STATISTIC: RUNNING AVERAGE
  Property ID: TC
  44 ID: TC_CL
     QUANTITY: THERMOCOUPLE
     Coordinates (X,Y,Z):    1.000000E-03    1.000000E-03    7.700000E-01
     TEMPORAL STATISTIC: RUNNING AVERAGE
  Property ID: TC
  45 ID: TC_CL
     QUANTITY: THERMOCOUPLE
     Coordinates (X,Y,Z):    1.000000E-03    1.000000E-03    7.900000E-01
     TEMPORAL STATISTIC: RUNNING AVERAGE
  Property ID: TC
  46 ID: TC_CL
     QUANTITY: THERMOCOUPLE
     Coordinates (X,Y,Z):    1.000000E-03    1.000000E-03    8.100000E-01
     TEMPORAL STATISTIC: RUNNING AVERAGE
  Property ID: TC
  47 ID: TC_CL
     QUANTITY: THERMOCOUPLE
     Coordinates (X,Y,Z):    1.000000E-03    1.000000E-03    8.300000E-01
     TEMPORAL STATISTIC: RUNNING AVERAGE
  Property ID: TC
  48 ID: TC_CL
     QUANTITY: THERMOCOUPLE
     Coordinates (X,Y,Z):    1.000000E-03    1.000000E-03    8.500000E-01
     TEMPORAL STATISTIC: RUNNING AVERAGE
  Property ID: TC
  49 ID: TC_CL
     QUANTITY: THERMOCOUPLE
     Coordinates (X,Y,Z):    1.000000E-03    1.000000E-03    8.700000E-01
     TEMPORAL STATISTIC: RUNNING AVERAGE
  Property ID: TC
  50 ID: TC_CL
     QUANTITY: THERMOCOUPLE
     Coordinates (X,Y,Z):    1.000000E-03    1.000000E-03    8.900000E-01
     TEMPORAL STATISTIC: RUNNING AVERAGE
  Property ID: TC
  51 ID: TC_CL
     QUANTITY: THERMOCOUPLE
     Coordinates (X,Y,Z):    1.000000E-03    1.000000E-03    9.100000E-01
     TEMPORAL STATISTIC: RUNNING AVERAGE
  Property ID: TC
  52 ID: TC_CL
     QUANTITY: THERMOCOUPLE
     Coordinates (X,Y,Z):    1.000000E-03    1.000000E-03    9.300000E-01
     TEMPORAL STATISTIC: RUNNING AVERAGE
  Property ID: TC
  53 ID: TC_CL
     QUANTITY: THERMOCOUPLE
     Coordinates (X,Y,Z):    1.000000E-03    1.000000E-03    9.500000E-01
     TEMPORAL STATISTIC: RUNNING AVERAGE
  Property ID: TC
  54 ID: TC_CL
     QUANTITY: THERMOCOUPLE
     Coordinates (X,Y,Z):    1.000000E-03    1.000000E-03    9.700000E-01
     TEMPORAL STATISTIC: RUNNING AVERAGE
  Property ID: TC
  55 ID: TC_CL
     QUANTITY: THERMOCOUPLE
     Coordinates (X,Y,Z):    1.000000E-03    1.000000E-03    9.900000E-01
     TEMPORAL STATISTIC: RUNNING AVERAGE
  Property ID: TC
  56 ID: TG_CL
     QUANTITY: TEMPERATURE
     Coordinates (X,Y,Z):    1.000000E-03    1.000000E-03    1.000000E-02
     TEMPORAL STATISTIC: RUNNING AVERAGE
  57 ID: TG_CL
     QUANTITY: TEMPERATURE
     Coordinates (X,Y,Z):    1.000000E-03    1.000000E-03    3.000000E-02
     TEMPORAL STATISTIC: RUNNING AVERAGE
  58 ID: TG_CL
     QUANTITY: TEMPERATURE
     Coordinates (X,Y,Z):    1.000000E-03    1.000000E-03    5.000000E-02
     TEMPORAL STATISTIC: RUNNING AVERAGE
  59 ID: TG_CL
     QUANTITY: TEMPERATURE
     Coordinates (X,Y,Z):    1.000000E-03    1.000000E-03    7.000000E-02
     TEMPORAL STATISTIC: RUNNING AVERAGE
  60 ID: TG_CL
     QUANTITY: TEMPERATURE
     Coordinates (X,Y,Z):    1.000000E-03    1.000000E-03    9.000000E-02
     TEMPORAL STATISTIC: RUNNING AVERAGE
  61 ID: TG_CL
     QUANTITY: TEMPERATURE
     Coordinates (X,Y,Z):    1.000000E-03    1.000000E-03    1.100000E-01
     TEMPORAL STATISTIC: RUNNING AVERAGE
  62 ID: TG_CL
     QUANTITY: TEMPERATURE
     Coordinates (X,Y,Z):    1.000000E-03    1.000000E-03    1.300000E-01
     TEMPORAL STATISTIC: RUNNING AVERAGE
  63 ID: TG_CL
     QUANTITY: TEMPERATURE
     Coordinates (X,Y,Z):    1.000000E-03    1.000000E-03    1.500000E-01
     TEMPORAL STATISTIC: RUNNING AVERAGE
  64 ID: TG_CL
     QUANTITY: TEMPERATURE
     Coordinates (X,Y,Z):    1.000000E-03    1.000000E-03    1.700000E-01
     TEMPORAL STATISTIC: RUNNING AVERAGE
  65 ID: TG_CL
     QUANTITY: TEMPERATURE
     Coordinates (X,Y,Z):    1.000000E-03    1.000000E-03    1.900000E-01
     TEMPORAL STATISTIC: RUNNING AVERAGE
  66 ID: TG_CL
     QUANTITY: TEMPERATURE
     Coordinates (X,Y,Z):    1.000000E-03    1.000000E-03    2.100000E-01
     TEMPORAL STATISTIC: RUNNING AVERAGE
  67 ID: TG_CL
     QUANTITY: TEMPERATURE
     Coordinates (X,Y,Z):    1.000000E-03    1.000000E-03    2.300000E-01
     TEMPORAL STATISTIC: RUNNING AVERAGE
  68 ID: TG_CL
     QUANTITY: TEMPERATURE
     Coordinates (X,Y,Z):    1.000000E-03    1.000000E-03    2.500000E-01
     TEMPORAL STATISTIC: RUNNING AVERAGE
  69 ID: TG_CL
     QUANTITY: TEMPERATURE
     Coordinates (X,Y,Z):    1.000000E-03    1.000000E-03    2.700000E-01
     TEMPORAL STATISTIC: RUNNING AVERAGE
  70 ID: TG_CL
     QUANTITY: TEMPERATURE
     Coordinates (X,Y,Z):    1.000000E-03    1.000000E-03    2.900000E-01
     TEMPORAL STATISTIC: RUNNING AVERAGE
  71 ID: TG_CL
     QUANTITY: TEMPERATURE
     Coordinates (X,Y,Z):    1.000000E-03    1.000000E-03    3.100000E-01
     TEMPORAL STATISTIC: RUNNING AVERAGE
  72 ID: TG_CL
     QUANTITY: TEMPERATURE
     Coordinates (X,Y,Z):    1.000000E-03    1.000000E-03    3.300000E-01
     TEMPORAL STATISTIC: RUNNING AVERAGE
  73 ID: TG_CL
     QUANTITY: TEMPERATURE
     Coordinates (X,Y,Z):    1.000000E-03    1.000000E-03    3.500000E-01
     TEMPORAL STATISTIC: RUNNING AVERAGE
  74 ID: TG_CL
     QUANTITY: TEMPERATURE
     Coordinates (X,Y,Z):    1.000000E-03    1.000000E-03    3.700000E-01
     TEMPORAL STATISTIC: RUNNING AVERAGE
  75 ID: TG_CL
     QUANTITY: TEMPERATURE
     Coordinates (X,Y,Z):    1.000000E-03    1.000000E-03    3.900000E-01
     TEMPORAL STATISTIC: RUNNING AVERAGE
  76 ID: TG_CL
     QUANTITY: TEMPERATURE
     Coordinates (X,Y,Z):    1.000000E-03    1.000000E-03    4.100000E-01
     TEMPORAL STATISTIC: RUNNING AVERAGE
  77 ID: TG_CL
     QUANTITY: TEMPERATURE
     Coordinates (X,Y,Z):    1.000000E-03    1.000000E-03    4.300000E-01
     TEMPORAL STATISTIC: RUNNING AVERAGE
  78 ID: TG_CL
     QUANTITY: TEMPERATURE
     Coordinates (X,Y,Z):    1.000000E-03    1.000000E-03    4.500000E-01
     TEMPORAL STATISTIC: RUNNING AVERAGE
  79 ID: TG_CL
     QUANTITY: TEMPERATURE
     Coordinates (X,Y,Z):    1.000000E-03    1.000000E-03    4.700000E-01
     TEMPORAL STATISTIC: RUNNING AVERAGE
  80 ID: TG_CL
     QUANTITY: TEMPERATURE
     Coordinates (X,Y,Z):    1.000000E-03    1.000000E-03    4.900000E-01
     TEMPORAL STATISTIC: RUNNING AVERAGE
  81 ID: TG_CL
     QUANTITY: TEMPERATURE
     Coordinates (X,Y,Z):    1.000000E-03    1.000000E-03    5.100000E-01
     TEMPORAL STATISTIC: RUNNING AVERAGE
  82 ID: TG_CL
     QUANTITY: TEMPERATURE
     Coordinates (X,Y,Z):    1.000000E-03    1.000000E-03    5.300000E-01
     TEMPORAL STATISTIC: RUNNING AVERAGE
  83 ID: TG_CL
     QUANTITY: TEMPERATURE
     Coordinates (X,Y,Z):    1.000000E-03    1.000000E-03    5.500000E-01
     TEMPORAL STATISTIC: RUNNING AVERAGE
  84 ID: TG_CL
     QUANTITY: TEMPERATURE
     Coordinates (X,Y,Z):    1.000000E-03    1.000000E-03    5.700000E-01
     TEMPORAL STATISTIC: RUNNING AVERAGE
  85 ID: TG_CL
     QUANTITY: TEMPERATURE
     Coordinates (X,Y,Z):    1.000000E-03    1.000000E-03    5.900000E-01
     TEMPORAL STATISTIC: RUNNING AVERAGE
  86 ID: TG_CL
     QUANTITY: TEMPERATURE
     Coordinates (X,Y,Z):    1.000000E-03    1.000000E-03    6.100000E-01
     TEMPORAL STATISTIC: RUNNING AVERAGE
  87 ID: TG_CL
     QUANTITY: TEMPERATURE
     Coordinates (X,Y,Z):    1.000000E-03    1.000000E-03    6.300000E-01
     TEMPORAL STATISTIC: RUNNING AVERAGE
  88 ID: TG_CL
     QUANTITY: TEMPERATURE
     Coordinates (X,Y,Z):    1.000000E-03    1.000000E-03    6.500000E-01
     TEMPORAL STATISTIC: RUNNING AVERAGE
  89 ID: TG_CL
     QUANTITY: TEMPERATURE
     Coordinates (X,Y,Z):    1.000000E-03    1.000000E-03    6.700000E-01
     TEMPORAL STATISTIC: RUNNING AVERAGE
  90 ID: TG_CL
     QUANTITY: TEMPERATURE
     Coordinates (X,Y,Z):    1.000000E-03    1.000000E-03    6.900000E-01
     TEMPORAL STATISTIC: RUNNING AVERAGE
  91 ID: TG_CL
     QUANTITY: TEMPERATURE
     Coordinates (X,Y,Z):    1.000000E-03    1.000000E-03    7.100000E-01
     TEMPORAL STATISTIC: RUNNING AVERAGE
  92 ID: TG_CL
     QUANTITY: TEMPERATURE
     Coordinates (X,Y,Z):    1.000000E-03    1.000000E-03    7.300000E-01
     TEMPORAL STATISTIC: RUNNING AVERAGE
  93 ID: TG_CL
     QUANTITY: TEMPERATURE
     Coordinates (X,Y,Z):    1.000000E-03    1.000000E-03    7.500000E-01
     TEMPORAL STATISTIC: RUNNING AVERAGE
  94 ID: TG_CL
     QUANTITY: TEMPERATURE
     Coordinates (X,Y,Z):    1.000000E-03    1.000000E-03    7.700000E-01
     TEMPORAL STATISTIC: RUNNING AVERAGE
  95 ID: TG_CL
     QUANTITY: TEMPERATURE
     Coordinates (X,Y,Z):    1.000000E-03    1.000000E-03    7.900000E-01
     TEMPORAL STATISTIC: RUNNING AVERAGE
  96 ID: TG_CL
     QUANTITY: TEMPERATURE
     Coordinates (X,Y,Z):    1.000000E-03    1.000000E-03    8.100000E-01
     TEMPORAL STATISTIC: RUNNING AVERAGE
  97 ID: TG_CL
     QUANTITY: TEMPERATURE
     Coordinates (X,Y,Z):    1.000000E-03    1.000000E-03    8.300000E-01
     TEMPORAL STATISTIC: RUNNING AVERAGE
  98 ID: TG_CL
     QUANTITY: TEMPERATURE
     Coordinates (X,Y,Z):    1.000000E-03    1.000000E-03    8.500000E-01
     TEMPORAL STATISTIC: RUNNING AVERAGE
  99 ID: TG_CL
     QUANTITY: TEMPERATURE
     Coordinates (X,Y,Z):    1.000000E-03    1.000000E-03    8.700000E-01
     TEMPORAL STATISTIC: RUNNING AVERAGE
 100 ID: TG_CL
     QUANTITY: TEMPERATURE
     Coordinates (X,Y,Z):    1.000000E-03    1.000000E-03    8.900000E-01
     TEMPORAL STATISTIC: RUNNING AVERAGE
 101 ID: TG_CL
     QUANTITY: TEMPERATURE
     Coordinates (X,Y,Z):    1.000000E-03    1.000000E-03    9.100000E-01
     TEMPORAL STATISTIC: RUNNING AVERAGE
 102 ID: TG_CL
     QUANTITY: TEMPERATURE
     Coordinates (X,Y,Z):    1.000000E-03    1.000000E-03    9.300000E-01
     TEMPORAL STATISTIC: RUNNING AVERAGE
 103 ID: TG_CL
     QUANTITY: TEMPERATURE
     Coordinates (X,Y,Z):    1.000000E-03    1.000000E-03    9.500000E-01
     TEMPORAL STATISTIC: RUNNING AVERAGE
 104 ID: TG_CL
     QUANTITY: TEMPERATURE
     Coordinates (X,Y,Z):    1.000000E-03    1.000000E-03    9.700000E-01
     TEMPORAL STATISTIC: RUNNING AVERAGE
 105 ID: TG_CL
     QUANTITY: TEMPERATURE
     Coordinates (X,Y,Z):    1.000000E-03    1.000000E-03    9.900000E-01
     TEMPORAL STATISTIC: RUNNING AVERAGE
 106 ID: w_CL
     QUANTITY: W-VELOCITY
     Coordinates (X,Y,Z):    1.000000E-03    1.000000E-03    1.000000E-02
     TEMPORAL STATISTIC: RUNNING AVERAGE
 107 ID: w_CL
     QUANTITY: W-VELOCITY
     Coordinates (X,Y,Z):    1.000000E-03    1.000000E-03    3.000000E-02
     TEMPORAL STATISTIC: RUNNING AVERAGE
 108 ID: w_CL
     QUANTITY: W-VELOCITY
     Coordinates (X,Y,Z):    1.000000E-03    1.000000E-03    5.000000E-02
     TEMPORAL STATISTIC: RUNNING AVERAGE
 109 ID: w_CL
     QUANTITY: W-VELOCITY
     Coordinates (X,Y,Z):    1.000000E-03    1.000000E-03    7.000000E-02
     TEMPORAL STATISTIC: RUNNING AVERAGE
 110 ID: w_CL
     QUANTITY: W-VELOCITY
     Coordinates (X,Y,Z):    1.000000E-03    1.000000E-03    9.000000E-02
     TEMPORAL STATISTIC: RUNNING AVERAGE
 111 ID: w_CL
     QUANTITY: W-VELOCITY
     Coordinates (X,Y,Z):    1.000000E-03    1.000000E-03    1.100000E-01
     TEMPORAL STATISTIC: RUNNING AVERAGE
 112 ID: w_CL
     QUANTITY: W-VELOCITY
     Coordinates (X,Y,Z):    1.000000E-03    1.000000E-03    1.300000E-01
     TEMPORAL STATISTIC: RUNNING AVERAGE
 113 ID: w_CL
     QUANTITY: W-VELOCITY
     Coordinates (X,Y,Z):    1.000000E-03    1.000000E-03    1.500000E-01
     TEMPORAL STATISTIC: RUNNING AVERAGE
 114 ID: w_CL
     QUANTITY: W-VELOCITY
     Coordinates (X,Y,Z):    1.000000E-03    1.000000E-03    1.700000E-01
     TEMPORAL STATISTIC: RUNNING AVERAGE
 115 ID: w_CL
     QUANTITY: W-VELOCITY
     Coordinates (X,Y,Z):    1.000000E-03    1.000000E-03    1.900000E-01
     TEMPORAL STATISTIC: RUNNING AVERAGE
 116 ID: w_CL
     QUANTITY: W-VELOCITY
     Coordinates (X,Y,Z):    1.000000E-03    1.000000E-03    2.100000E-01
     TEMPORAL STATISTIC: RUNNING AVERAGE
 117 ID: w_CL
     QUANTITY: W-VELOCITY
     Coordinates (X,Y,Z):    1.000000E-03    1.000000E-03    2.300000E-01
     TEMPORAL STATISTIC: RUNNING AVERAGE
 118 ID: w_CL
     QUANTITY: W-VELOCITY
     Coordinates (X,Y,Z):    1.000000E-03    1.000000E-03    2.500000E-01
     TEMPORAL STATISTIC: RUNNING AVERAGE
 119 ID: w_CL
     QUANTITY: W-VELOCITY
     Coordinates (X,Y,Z):    1.000000E-03    1.000000E-03    2.700000E-01
     TEMPORAL STATISTIC: RUNNING AVERAGE
 120 ID: w_CL
     QUANTITY: W-VELOCITY
     Coordinates (X,Y,Z):    1.000000E-03    1.000000E-03    2.900000E-01
     TEMPORAL STATISTIC: RUNNING AVERAGE
 121 ID: w_CL
     QUANTITY: W-VELOCITY
     Coordinates (X,Y,Z):    1.000000E-03    1.000000E-03    3.100000E-01
     TEMPORAL STATISTIC: RUNNING AVERAGE
 122 ID: w_CL
     QUANTITY: W-VELOCITY
     Coordinates (X,Y,Z):    1.000000E-03    1.000000E-03    3.300000E-01
     TEMPORAL STATISTIC: RUNNING AVERAGE
 123 ID: w_CL
     QUANTITY: W-VELOCITY
     Coordinates (X,Y,Z):    1.000000E-03    1.000000E-03    3.500000E-01
     TEMPORAL STATISTIC: RUNNING AVERAGE
 124 ID: w_CL
     QUANTITY: W-VELOCITY
     Coordinates (X,Y,Z):    1.000000E-03    1.000000E-03    3.700000E-01
     TEMPORAL STATISTIC: RUNNING AVERAGE
 125 ID: w_CL
     QUANTITY: W-VELOCITY
     Coordinates (X,Y,Z):    1.000000E-03    1.000000E-03    3.900000E-01
     TEMPORAL STATISTIC: RUNNING AVERAGE
 126 ID: w_CL
     QUANTITY: W-VELOCITY
     Coordinates (X,Y,Z):    1.000000E-03    1.000000E-03    4.100000E-01
     TEMPORAL STATISTIC: RUNNING AVERAGE
 127 ID: w_CL
     QUANTITY: W-VELOCITY
     Coordinates (X,Y,Z):    1.000000E-03    1.000000E-03    4.300000E-01
     TEMPORAL STATISTIC: RUNNING AVERAGE
 128 ID: w_CL
     QUANTITY: W-VELOCITY
     Coordinates (X,Y,Z):    1.000000E-03    1.000000E-03    4.500000E-01
     TEMPORAL STATISTIC: RUNNING AVERAGE
 129 ID: w_CL
     QUANTITY: W-VELOCITY
     Coordinates (X,Y,Z):    1.000000E-03    1.000000E-03    4.700000E-01
     TEMPORAL STATISTIC: RUNNING AVERAGE
 130 ID: w_CL
     QUANTITY: W-VELOCITY
     Coordinates (X,Y,Z):    1.000000E-03    1.000000E-03    4.900000E-01
     TEMPORAL STATISTIC: RUNNING AVERAGE
 131 ID: w_CL
     QUANTITY: W-VELOCITY
     Coordinates (X,Y,Z):    1.000000E-03    1.000000E-03    5.100000E-01
     TEMPORAL STATISTIC: RUNNING AVERAGE
 132 ID: w_CL
     QUANTITY: W-VELOCITY
     Coordinates (X,Y,Z):    1.000000E-03    1.000000E-03    5.300000E-01
     TEMPORAL STATISTIC: RUNNING AVERAGE
 133 ID: w_CL
     QUANTITY: W-VELOCITY
     Coordinates (X,Y,Z):    1.000000E-03    1.000000E-03    5.500000E-01
     TEMPORAL STATISTIC: RUNNING AVERAGE
 134 ID: w_CL
     QUANTITY: W-VELOCITY
     Coordinates (X,Y,Z):    1.000000E-03    1.000000E-03    5.700000E-01
     TEMPORAL STATISTIC: RUNNING AVERAGE
 135 ID: w_CL
     QUANTITY: W-VELOCITY
     Coordinates (X,Y,Z):    1.000000E-03    1.000000E-03    5.900000E-01
     TEMPORAL STATISTIC: RUNNING AVERAGE
 136 ID: w_CL
     QUANTITY: W-VELOCITY
     Coordinates (X,Y,Z):    1.000000E-03    1.000000E-03    6.100000E-01
     TEMPORAL STATISTIC: RUNNING AVERAGE
 137 ID: w_CL
     QUANTITY: W-VELOCITY
     Coordinates (X,Y,Z):    1.000000E-03    1.000000E-03    6.300000E-01
     TEMPORAL STATISTIC: RUNNING AVERAGE
 138 ID: w_CL
     QUANTITY: W-VELOCITY
     Coordinates (X,Y,Z):    1.000000E-03    1.000000E-03    6.500000E-01
     TEMPORAL STATISTIC: RUNNING AVERAGE
 139 ID: w_CL
     QUANTITY: W-VELOCITY
     Coordinates (X,Y,Z):    1.000000E-03    1.000000E-03    6.700000E-01
     TEMPORAL STATISTIC: RUNNING AVERAGE
 140 ID: w_CL
     QUANTITY: W-VELOCITY
     Coordinates (X,Y,Z):    1.000000E-03    1.000000E-03    6.900000E-01
     TEMPORAL STATISTIC: RUNNING AVERAGE
 141 ID: w_CL
     QUANTITY: W-VELOCITY
     Coordinates (X,Y,Z):    1.000000E-03    1.000000E-03    7.100000E-01
     TEMPORAL STATISTIC: RUNNING AVERAGE
 142 ID: w_CL
     QUANTITY: W-VELOCITY
     Coordinates (X,Y,Z):    1.000000E-03    1.000000E-03    7.300000E-01
     TEMPORAL STATISTIC: RUNNING AVERAGE
 143 ID: w_CL
     QUANTITY: W-VELOCITY
     Coordinates (X,Y,Z):    1.000000E-03    1.000000E-03    7.500000E-01
     TEMPORAL STATISTIC: RUNNING AVERAGE
 144 ID: w_CL
     QUANTITY: W-VELOCITY
     Coordinates (X,Y,Z):    1.000000E-03    1.000000E-03    7.700000E-01
     TEMPORAL STATISTIC: RUNNING AVERAGE
 145 ID: w_CL
     QUANTITY: W-VELOCITY
     Coordinates (X,Y,Z):    1.000000E-03    1.000000E-03    7.900000E-01
     TEMPORAL STATISTIC: RUNNING AVERAGE
 146 ID: w_CL
     QUANTITY: W-VELOCITY
     Coordinates (X,Y,Z):    1.000000E-03    1.000000E-03    8.100000E-01
     TEMPORAL STATISTIC: RUNNING AVERAGE
 147 ID: w_CL
     QUANTITY: W-VELOCITY
     Coordinates (X,Y,Z):    1.000000E-03    1.000000E-03    8.300000E-01
     TEMPORAL STATISTIC: RUNNING AVERAGE
 148 ID: w_CL
     QUANTITY: W-VELOCITY
     Coordinates (X,Y,Z):    1.000000E-03    1.000000E-03    8.500000E-01
     TEMPORAL STATISTIC: RUNNING AVERAGE
 149 ID: w_CL
     QUANTITY: W-VELOCITY
     Coordinates (X,Y,Z):    1.000000E-03    1.000000E-03    8.700000E-01
     TEMPORAL STATISTIC: RUNNING AVERAGE
 150 ID: w_CL
     QUANTITY: W-VELOCITY
     Coordinates (X,Y,Z):    1.000000E-03    1.000000E-03    8.900000E-01
     TEMPORAL STATISTIC: RUNNING AVERAGE
 151 ID: w_CL
     QUANTITY: W-VELOCITY
     Coordinates (X,Y,Z):    1.000000E-03    1.000000E-03    9.100000E-01
     TEMPORAL STATISTIC: RUNNING AVERAGE
 152 ID: w_CL
     QUANTITY: W-VELOCITY
     Coordinates (X,Y,Z):    1.000000E-03    1.000000E-03    9.300000E-01
     TEMPORAL STATISTIC: RUNNING AVERAGE
 153 ID: w_CL
     QUANTITY: W-VELOCITY
     Coordinates (X,Y,Z):    1.000000E-03    1.000000E-03    9.500000E-01
     TEMPORAL STATISTIC: RUNNING AVERAGE
 154 ID: w_CL
     QUANTITY: W-VELOCITY
     Coordinates (X,Y,Z):    1.000000E-03    1.000000E-03    9.700000E-01
     TEMPORAL STATISTIC: RUNNING AVERAGE
 155 ID: w_CL
     QUANTITY: W-VELOCITY
     Coordinates (X,Y,Z):    1.000000E-03    1.000000E-03    9.900000E-01
     TEMPORAL STATISTIC: RUNNING AVERAGE
 156 ID: TC_CL_RMS
     QUANTITY: THERMOCOUPLE
     Coordinates (X,Y,Z):    1.000000E-03    1.000000E-03    1.000000E-02
     TEMPORAL STATISTIC: RMS
  Property ID: TC
 157 ID: TC_CL_RMS
     QUANTITY: THERMOCOUPLE
     Coordinates (X,Y,Z):    1.000000E-03    1.000000E-03    3.000000E-02
     TEMPORAL STATISTIC: RMS
  Property ID: TC
 158 ID: TC_CL_RMS
     QUANTITY: THERMOCOUPLE
     Coordinates (X,Y,Z):    1.000000E-03    1.000000E-03    5.000000E-02
     TEMPORAL STATISTIC: RMS
  Property ID: TC
 159 ID: TC_CL_RMS
     QUANTITY: THERMOCOUPLE
     Coordinates (X,Y,Z):    1.000000E-03    1.000000E-03    7.000000E-02
     TEMPORAL STATISTIC: RMS
  Property ID: TC
 160 ID: TC_CL_RMS
     QUANTITY: THERMOCOUPLE
     Coordinates (X,Y,Z):    1.000000E-03    1.000000E-03    9.000000E-02
     TEMPORAL STATISTIC: RMS
  Property ID: TC
 161 ID: TC_CL_RMS
     QUANTITY: THERMOCOUPLE
     Coordinates (X,Y,Z):    1.000000E-03    1.000000E-03    1.100000E-01
     TEMPORAL STATISTIC: RMS
  Property ID: TC
 162 ID: TC_CL_RMS
     QUANTITY: THERMOCOUPLE
     Coordinates (X,Y,Z):    1.000000E-03    1.000000E-03    1.300000E-01
     TEMPORAL STATISTIC: RMS
  Property ID: TC
 163 ID: TC_CL_RMS
     QUANTITY: THERMOCOUPLE
     Coordinates (X,Y,Z):    1.000000E-03    1.000000E-03    1.500000E-01
     TEMPORAL STATISTIC: RMS
  Property ID: TC
 164 ID: TC_CL_RMS
     QUANTITY: THERMOCOUPLE
     Coordinates (X,Y,Z):    1.000000E-03    1.000000E-03    1.700000E-01
     TEMPORAL STATISTIC: RMS
  Property ID: TC
 165 ID: TC_CL_RMS
     QUANTITY: THERMOCOUPLE
     Coordinates (X,Y,Z):    1.000000E-03    1.000000E-03    1.900000E-01
     TEMPORAL STATISTIC: RMS
  Property ID: TC
 166 ID: TC_CL_RMS
     QUANTITY: THERMOCOUPLE
     Coordinates (X,Y,Z):    1.000000E-03    1.000000E-03    2.100000E-01
     TEMPORAL STATISTIC: RMS
  Property ID: TC
 167 ID: TC_CL_RMS
     QUANTITY: THERMOCOUPLE
     Coordinates (X,Y,Z):    1.000000E-03    1.000000E-03    2.300000E-01
     TEMPORAL STATISTIC: RMS
  Property ID: TC
 168 ID: TC_CL_RMS
     QUANTITY: THERMOCOUPLE
     Coordinates (X,Y,Z):    1.000000E-03    1.000000E-03    2.500000E-01
     TEMPORAL STATISTIC: RMS
  Property ID: TC
 169 ID: TC_CL_RMS
     QUANTITY: THERMOCOUPLE
     Coordinates (X,Y,Z):    1.000000E-03    1.000000E-03    2.700000E-01
     TEMPORAL STATISTIC: RMS
  Property ID: TC
 170 ID: TC_CL_RMS
     QUANTITY: THERMOCOUPLE
     Coordinates (X,Y,Z):    1.000000E-03    1.000000E-03    2.900000E-01
     TEMPORAL STATISTIC: RMS
  Property ID: TC
 171 ID: TC_CL_RMS
     QUANTITY: THERMOCOUPLE
     Coordinates (X,Y,Z):    1.000000E-03    1.000000E-03    3.100000E-01
     TEMPORAL STATISTIC: RMS
  Property ID: TC
 172 ID: TC_CL_RMS
     QUANTITY: THERMOCOUPLE
     Coordinates (X,Y,Z):    1.000000E-03    1.000000E-03    3.300000E-01
     TEMPORAL STATISTIC: RMS
  Property ID: TC
 173 ID: TC_CL_RMS
     QUANTITY: THERMOCOUPLE
     Coordinates (X,Y,Z):    1.000000E-03    1.000000E-03    3.500000E-01
     TEMPORAL STATISTIC: RMS
  Property ID: TC
 174 ID: TC_CL_RMS
     QUANTITY: THERMOCOUPLE
     Coordinates (X,Y,Z):    1.000000E-03    1.000000E-03    3.700000E-01
     TEMPORAL STATISTIC: RMS
  Property ID: TC
 175 ID: TC_CL_RMS
     QUANTITY: THERMOCOUPLE
     Coordinates (X,Y,Z):    1.000000E-03    1.000000E-03    3.900000E-01
     TEMPORAL STATISTIC: RMS
  Property ID: TC
 176 ID: TC_CL_RMS
     QUANTITY: THERMOCOUPLE
     Coordinates (X,Y,Z):    1.000000E-03    1.000000E-03    4.100000E-01
     TEMPORAL STATISTIC: RMS
  Property ID: TC
 177 ID: TC_CL_RMS
     QUANTITY: THERMOCOUPLE
     Coordinates (X,Y,Z):    1.000000E-03    1.000000E-03    4.300000E-01
     TEMPORAL STATISTIC: RMS
  Property ID: TC
 178 ID: TC_CL_RMS
     QUANTITY: THERMOCOUPLE
     Coordinates (X,Y,Z):    1.000000E-03    1.000000E-03    4.500000E-01
     TEMPORAL STATISTIC: RMS
  Property ID: TC
 179 ID: TC_CL_RMS
     QUANTITY: THERMOCOUPLE
     Coordinates (X,Y,Z):    1.000000E-03    1.000000E-03    4.700000E-01
     TEMPORAL STATISTIC: RMS
  Property ID: TC
 180 ID: TC_CL_RMS
     QUANTITY: THERMOCOUPLE
     Coordinates (X,Y,Z):    1.000000E-03    1.000000E-03    4.900000E-01
     TEMPORAL STATISTIC: RMS
  Property ID: TC
 181 ID: TC_CL_RMS
     QUANTITY: THERMOCOUPLE
     Coordinates (X,Y,Z):    1.000000E-03    1.000000E-03    5.100000E-01
     TEMPORAL STATISTIC: RMS
  Property ID: TC
 182 ID: TC_CL_RMS
     QUANTITY: THERMOCOUPLE
     Coordinates (X,Y,Z):    1.000000E-03    1.000000E-03    5.300000E-01
     TEMPORAL STATISTIC: RMS
  Property ID: TC
 183 ID: TC_CL_RMS
     QUANTITY: THERMOCOUPLE
     Coordinates (X,Y,Z):    1.000000E-03    1.000000E-03    5.500000E-01
     TEMPORAL STATISTIC: RMS
  Property ID: TC
 184 ID: TC_CL_RMS
     QUANTITY: THERMOCOUPLE
     Coordinates (X,Y,Z):    1.000000E-03    1.000000E-03    5.700000E-01
     TEMPORAL STATISTIC: RMS
  Property ID: TC
 185 ID: TC_CL_RMS
     QUANTITY: THERMOCOUPLE
     Coordinates (X,Y,Z):    1.000000E-03    1.000000E-03    5.900000E-01
     TEMPORAL STATISTIC: RMS
  Property ID: TC
 186 ID: TC_CL_RMS
     QUANTITY: THERMOCOUPLE
     Coordinates (X,Y,Z):    1.000000E-03    1.000000E-03    6.100000E-01
     TEMPORAL STATISTIC: RMS
  Property ID: TC
 187 ID: TC_CL_RMS
     QUANTITY: THERMOCOUPLE
     Coordinates (X,Y,Z):    1.000000E-03    1.000000E-03    6.300000E-01
     TEMPORAL STATISTIC: RMS
  Property ID: TC
 188 ID: TC_CL_RMS
     QUANTITY: THERMOCOUPLE
     Coordinates (X,Y,Z):    1.000000E-03    1.000000E-03    6.500000E-01
     TEMPORAL STATISTIC: RMS
  Property ID: TC
 189 ID: TC_CL_RMS
     QUANTITY: THERMOCOUPLE
     Coordinates (X,Y,Z):    1.000000E-03    1.000000E-03    6.700000E-01
     TEMPORAL STATISTIC: RMS
  Property ID: TC
 190 ID: TC_CL_RMS
     QUANTITY: THERMOCOUPLE
     Coordinates (X,Y,Z):    1.000000E-03    1.000000E-03    6.900000E-01
     TEMPORAL STATISTIC: RMS
  Property ID: TC
 191 ID: TC_CL_RMS
     QUANTITY: THERMOCOUPLE
     Coordinates (X,Y,Z):    1.000000E-03    1.000000E-03    7.100000E-01
     TEMPORAL STATISTIC: RMS
  Property ID: TC
 192 ID: TC_CL_RMS
     QUANTITY: THERMOCOUPLE
     Coordinates (X,Y,Z):    1.000000E-03    1.000000E-03    7.300000E-01
     TEMPORAL STATISTIC: RMS
  Property ID: TC
 193 ID: TC_CL_RMS
     QUANTITY: THERMOCOUPLE
     Coordinates (X,Y,Z):    1.000000E-03    1.000000E-03    7.500000E-01
     TEMPORAL STATISTIC: RMS
  Property ID: TC
 194 ID: TC_CL_RMS
     QUANTITY: THERMOCOUPLE
     Coordinates (X,Y,Z):    1.000000E-03    1.000000E-03    7.700000E-01
     TEMPORAL STATISTIC: RMS
  Property ID: TC
 195 ID: TC_CL_RMS
     QUANTITY: THERMOCOUPLE
     Coordinates (X,Y,Z):    1.000000E-03    1.000000E-03    7.900000E-01
     TEMPORAL STATISTIC: RMS
  Property ID: TC
 196 ID: TC_CL_RMS
     QUANTITY: THERMOCOUPLE
     Coordinates (X,Y,Z):    1.000000E-03    1.000000E-03    8.100000E-01
     TEMPORAL STATISTIC: RMS
  Property ID: TC
 197 ID: TC_CL_RMS
     QUANTITY: THERMOCOUPLE
     Coordinates (X,Y,Z):    1.000000E-03    1.000000E-03    8.300000E-01
     TEMPORAL STATISTIC: RMS
  Property ID: TC
 198 ID: TC_CL_RMS
     QUANTITY: THERMOCOUPLE
     Coordinates (X,Y,Z):    1.000000E-03    1.000000E-03    8.500000E-01
     TEMPORAL STATISTIC: RMS
  Property ID: TC
 199 ID: TC_CL_RMS
     QUANTITY: THERMOCOUPLE
     Coordinates (X,Y,Z):    1.000000E-03    1.000000E-03    8.700000E-01
     TEMPORAL STATISTIC: RMS
  Property ID: TC
 200 ID: TC_CL_RMS
     QUANTITY: THERMOCOUPLE
     Coordinates (X,Y,Z):    1.000000E-03    1.000000E-03    8.900000E-01
     TEMPORAL STATISTIC: RMS
  Property ID: TC
 201 ID: TC_CL_RMS
     QUANTITY: THERMOCOUPLE
     Coordinates (X,Y,Z):    1.000000E-03    1.000000E-03    9.100000E-01
     TEMPORAL STATISTIC: RMS
  Property ID: TC
 202 ID: TC_CL_RMS
     QUANTITY: THERMOCOUPLE
     Coordinates (X,Y,Z):    1.000000E-03    1.000000E-03    9.300000E-01
     TEMPORAL STATISTIC: RMS
  Property ID: TC
 203 ID: TC_CL_RMS
     QUANTITY: THERMOCOUPLE
     Coordinates (X,Y,Z):    1.000000E-03    1.000000E-03    9.500000E-01
     TEMPORAL STATISTIC: RMS
  Property ID: TC
 204 ID: TC_CL_RMS
     QUANTITY: THERMOCOUPLE
     Coordinates (X,Y,Z):    1.000000E-03    1.000000E-03    9.700000E-01
     TEMPORAL STATISTIC: RMS
  Property ID: TC
 205 ID: TC_CL_RMS
     QUANTITY: THERMOCOUPLE
     Coordinates (X,Y,Z):    1.000000E-03    1.000000E-03    9.900000E-01
     TEMPORAL STATISTIC: RMS
  Property ID: TC
 206 ID: TG_CL_RMS
     QUANTITY: TEMPERATURE
     Coordinates (X,Y,Z):    1.000000E-03    1.000000E-03    1.000000E-02
     TEMPORAL STATISTIC: RMS
 207 ID: TG_CL_RMS
     QUANTITY: TEMPERATURE
     Coordinates (X,Y,Z):    1.000000E-03    1.000000E-03    3.000000E-02
     TEMPORAL STATISTIC: RMS
 208 ID: TG_CL_RMS
     QUANTITY: TEMPERATURE
     Coordinates (X,Y,Z):    1.000000E-03    1.000000E-03    5.000000E-02
     TEMPORAL STATISTIC: RMS
 209 ID: TG_CL_RMS
     QUANTITY: TEMPERATURE
     Coordinates (X,Y,Z):    1.000000E-03    1.000000E-03    7.000000E-02
     TEMPORAL STATISTIC: RMS
 210 ID: TG_CL_RMS
     QUANTITY: TEMPERATURE
     Coordinates (X,Y,Z):    1.000000E-03    1.000000E-03    9.000000E-02
     TEMPORAL STATISTIC: RMS
 211 ID: TG_CL_RMS
     QUANTITY: TEMPERATURE
     Coordinates (X,Y,Z):    1.000000E-03    1.000000E-03    1.100000E-01
     TEMPORAL STATISTIC: RMS
 212 ID: TG_CL_RMS
     QUANTITY: TEMPERATURE
     Coordinates (X,Y,Z):    1.000000E-03    1.000000E-03    1.300000E-01
     TEMPORAL STATISTIC: RMS
 213 ID: TG_CL_RMS
     QUANTITY: TEMPERATURE
     Coordinates (X,Y,Z):    1.000000E-03    1.000000E-03    1.500000E-01
     TEMPORAL STATISTIC: RMS
 214 ID: TG_CL_RMS
     QUANTITY: TEMPERATURE
     Coordinates (X,Y,Z):    1.000000E-03    1.000000E-03    1.700000E-01
     TEMPORAL STATISTIC: RMS
 215 ID: TG_CL_RMS
     QUANTITY: TEMPERATURE
     Coordinates (X,Y,Z):    1.000000E-03    1.000000E-03    1.900000E-01
     TEMPORAL STATISTIC: RMS
 216 ID: TG_CL_RMS
     QUANTITY: TEMPERATURE
     Coordinates (X,Y,Z):    1.000000E-03    1.000000E-03    2.100000E-01
     TEMPORAL STATISTIC: RMS
 217 ID: TG_CL_RMS
     QUANTITY: TEMPERATURE
     Coordinates (X,Y,Z):    1.000000E-03    1.000000E-03    2.300000E-01
     TEMPORAL STATISTIC: RMS
 218 ID: TG_CL_RMS
     QUANTITY: TEMPERATURE
     Coordinates (X,Y,Z):    1.000000E-03    1.000000E-03    2.500000E-01
     TEMPORAL STATISTIC: RMS
 219 ID: TG_CL_RMS
     QUANTITY: TEMPERATURE
     Coordinates (X,Y,Z):    1.000000E-03    1.000000E-03    2.700000E-01
     TEMPORAL STATISTIC: RMS
 220 ID: TG_CL_RMS
     QUANTITY: TEMPERATURE
     Coordinates (X,Y,Z):    1.000000E-03    1.000000E-03    2.900000E-01
     TEMPORAL STATISTIC: RMS
 221 ID: TG_CL_RMS
     QUANTITY: TEMPERATURE
     Coordinates (X,Y,Z):    1.000000E-03    1.000000E-03    3.100000E-01
     TEMPORAL STATISTIC: RMS
 222 ID: TG_CL_RMS
     QUANTITY: TEMPERATURE
     Coordinates (X,Y,Z):    1.000000E-03    1.000000E-03    3.300000E-01
     TEMPORAL STATISTIC: RMS
 223 ID: TG_CL_RMS
     QUANTITY: TEMPERATURE
     Coordinates (X,Y,Z):    1.000000E-03    1.000000E-03    3.500000E-01
     TEMPORAL STATISTIC: RMS
 224 ID: TG_CL_RMS
     QUANTITY: TEMPERATURE
     Coordinates (X,Y,Z):    1.000000E-03    1.000000E-03    3.700000E-01
     TEMPORAL STATISTIC: RMS
 225 ID: TG_CL_RMS
     QUANTITY: TEMPERATURE
     Coordinates (X,Y,Z):    1.000000E-03    1.000000E-03    3.900000E-01
     TEMPORAL STATISTIC: RMS
 226 ID: TG_CL_RMS
     QUANTITY: TEMPERATURE
     Coordinates (X,Y,Z):    1.000000E-03    1.000000E-03    4.100000E-01
     TEMPORAL STATISTIC: RMS
 227 ID: TG_CL_RMS
     QUANTITY: TEMPERATURE
     Coordinates (X,Y,Z):    1.000000E-03    1.000000E-03    4.300000E-01
     TEMPORAL STATISTIC: RMS
 228 ID: TG_CL_RMS
     QUANTITY: TEMPERATURE
     Coordinates (X,Y,Z):    1.000000E-03    1.000000E-03    4.500000E-01
     TEMPORAL STATISTIC: RMS
 229 ID: TG_CL_RMS
     QUANTITY: TEMPERATURE
     Coordinates (X,Y,Z):    1.000000E-03    1.000000E-03    4.700000E-01
     TEMPORAL STATISTIC: RMS
 230 ID: TG_CL_RMS
     QUANTITY: TEMPERATURE
     Coordinates (X,Y,Z):    1.000000E-03    1.000000E-03    4.900000E-01
     TEMPORAL STATISTIC: RMS
 231 ID: TG_CL_RMS
     QUANTITY: TEMPERATURE
     Coordinates (X,Y,Z):    1.000000E-03    1.000000E-03    5.100000E-01
     TEMPORAL STATISTIC: RMS
 232 ID: TG_CL_RMS
     QUANTITY: TEMPERATURE
     Coordinates (X,Y,Z):    1.000000E-03    1.000000E-03    5.300000E-01
     TEMPORAL STATISTIC: RMS
 233 ID: TG_CL_RMS
     QUANTITY: TEMPERATURE
     Coordinates (X,Y,Z):    1.000000E-03    1.000000E-03    5.500000E-01
     TEMPORAL STATISTIC: RMS
 234 ID: TG_CL_RMS
     QUANTITY: TEMPERATURE
     Coordinates (X,Y,Z):    1.000000E-03    1.000000E-03    5.700000E-01
     TEMPORAL STATISTIC: RMS
 235 ID: TG_CL_RMS
     QUANTITY: TEMPERATURE
     Coordinates (X,Y,Z):    1.000000E-03    1.000000E-03    5.900000E-01
     TEMPORAL STATISTIC: RMS
 236 ID: TG_CL_RMS
     QUANTITY: TEMPERATURE
     Coordinates (X,Y,Z):    1.000000E-03    1.000000E-03    6.100000E-01
     TEMPORAL STATISTIC: RMS
 237 ID: TG_CL_RMS
     QUANTITY: TEMPERATURE
     Coordinates (X,Y,Z):    1.000000E-03    1.000000E-03    6.300000E-01
     TEMPORAL STATISTIC: RMS
 238 ID: TG_CL_RMS
     QUANTITY: TEMPERATURE
     Coordinates (X,Y,Z):    1.000000E-03    1.000000E-03    6.500000E-01
     TEMPORAL STATISTIC: RMS
 239 ID: TG_CL_RMS
     QUANTITY: TEMPERATURE
     Coordinates (X,Y,Z):    1.000000E-03    1.000000E-03    6.700000E-01
     TEMPORAL STATISTIC: RMS
 240 ID: TG_CL_RMS
     QUANTITY: TEMPERATURE
     Coordinates (X,Y,Z):    1.000000E-03    1.000000E-03    6.900000E-01
     TEMPORAL STATISTIC: RMS
 241 ID: TG_CL_RMS
     QUANTITY: TEMPERATURE
     Coordinates (X,Y,Z):    1.000000E-03    1.000000E-03    7.100000E-01
     TEMPORAL STATISTIC: RMS
 242 ID: TG_CL_RMS
     QUANTITY: TEMPERATURE
     Coordinates (X,Y,Z):    1.000000E-03    1.000000E-03    7.300000E-01
     TEMPORAL STATISTIC: RMS
 243 ID: TG_CL_RMS
     QUANTITY: TEMPERATURE
     Coordinates (X,Y,Z):    1.000000E-03    1.000000E-03    7.500000E-01
     TEMPORAL STATISTIC: RMS
 244 ID: TG_CL_RMS
     QUANTITY: TEMPERATURE
     Coordinates (X,Y,Z):    1.000000E-03    1.000000E-03    7.700000E-01
     TEMPORAL STATISTIC: RMS
 245 ID: TG_CL_RMS
     QUANTITY: TEMPERATURE
     Coordinates (X,Y,Z):    1.000000E-03    1.000000E-03    7.900000E-01
     TEMPORAL STATISTIC: RMS
 246 ID: TG_CL_RMS
     QUANTITY: TEMPERATURE
     Coordinates (X,Y,Z):    1.000000E-03    1.000000E-03    8.100000E-01
     TEMPORAL STATISTIC: RMS
 247 ID: TG_CL_RMS
     QUANTITY: TEMPERATURE
     Coordinates (X,Y,Z):    1.000000E-03    1.000000E-03    8.300000E-01
     TEMPORAL STATISTIC: RMS
 248 ID: TG_CL_RMS
     QUANTITY: TEMPERATURE
     Coordinates (X,Y,Z):    1.000000E-03    1.000000E-03    8.500000E-01
     TEMPORAL STATISTIC: RMS
 249 ID: TG_CL_RMS
     QUANTITY: TEMPERATURE
     Coordinates (X,Y,Z):    1.000000E-03    1.000000E-03    8.700000E-01
     TEMPORAL STATISTIC: RMS
 250 ID: TG_CL_RMS
     QUANTITY: TEMPERATURE
     Coordinates (X,Y,Z):    1.000000E-03    1.000000E-03    8.900000E-01
     TEMPORAL STATISTIC: RMS
 251 ID: TG_CL_RMS
     QUANTITY: TEMPERATURE
     Coordinates (X,Y,Z):    1.000000E-03    1.000000E-03    9.100000E-01
     TEMPORAL STATISTIC: RMS
 252 ID: TG_CL_RMS
     QUANTITY: TEMPERATURE
     Coordinates (X,Y,Z):    1.000000E-03    1.000000E-03    9.300000E-01
     TEMPORAL STATISTIC: RMS
 253 ID: TG_CL_RMS
     QUANTITY: TEMPERATURE
     Coordinates (X,Y,Z):    1.000000E-03    1.000000E-03    9.500000E-01
     TEMPORAL STATISTIC: RMS
 254 ID: TG_CL_RMS
     QUANTITY: TEMPERATURE
     Coordinates (X,Y,Z):    1.000000E-03    1.000000E-03    9.700000E-01
     TEMPORAL STATISTIC: RMS
 255 ID: TG_CL_RMS
     QUANTITY: TEMPERATURE
     Coordinates (X,Y,Z):    1.000000E-03    1.000000E-03    9.900000E-01
     TEMPORAL STATISTIC: RMS
 256 ID: w_CL_RMS
     QUANTITY: W-VELOCITY
     Coordinates (X,Y,Z):    1.000000E-03    1.000000E-03    1.000000E-02
     TEMPORAL STATISTIC: RMS
 257 ID: w_CL_RMS
     QUANTITY: W-VELOCITY
     Coordinates (X,Y,Z):    1.000000E-03    1.000000E-03    3.000000E-02
     TEMPORAL STATISTIC: RMS
 258 ID: w_CL_RMS
     QUANTITY: W-VELOCITY
     Coordinates (X,Y,Z):    1.000000E-03    1.000000E-03    5.000000E-02
     TEMPORAL STATISTIC: RMS
 259 ID: w_CL_RMS
     QUANTITY: W-VELOCITY
     Coordinates (X,Y,Z):    1.000000E-03    1.000000E-03    7.000000E-02
     TEMPORAL STATISTIC: RMS
 260 ID: w_CL_RMS
     QUANTITY: W-VELOCITY
     Coordinates (X,Y,Z):    1.000000E-03    1.000000E-03    9.000000E-02
     TEMPORAL STATISTIC: RMS
 261 ID: w_CL_RMS
     QUANTITY: W-VELOCITY
     Coordinates (X,Y,Z):    1.000000E-03    1.000000E-03    1.100000E-01
     TEMPORAL STATISTIC: RMS
 262 ID: w_CL_RMS
     QUANTITY: W-VELOCITY
     Coordinates (X,Y,Z):    1.000000E-03    1.000000E-03    1.300000E-01
     TEMPORAL STATISTIC: RMS
 263 ID: w_CL_RMS
     QUANTITY: W-VELOCITY
     Coordinates (X,Y,Z):    1.000000E-03    1.000000E-03    1.500000E-01
     TEMPORAL STATISTIC: RMS
 264 ID: w_CL_RMS
     QUANTITY: W-VELOCITY
     Coordinates (X,Y,Z):    1.000000E-03    1.000000E-03    1.700000E-01
     TEMPORAL STATISTIC: RMS
 265 ID: w_CL_RMS
     QUANTITY: W-VELOCITY
     Coordinates (X,Y,Z):    1.000000E-03    1.000000E-03    1.900000E-01
     TEMPORAL STATISTIC: RMS
 266 ID: w_CL_RMS
     QUANTITY: W-VELOCITY
     Coordinates (X,Y,Z):    1.000000E-03    1.000000E-03    2.100000E-01
     TEMPORAL STATISTIC: RMS
 267 ID: w_CL_RMS
     QUANTITY: W-VELOCITY
     Coordinates (X,Y,Z):    1.000000E-03    1.000000E-03    2.300000E-01
     TEMPORAL STATISTIC: RMS
 268 ID: w_CL_RMS
     QUANTITY: W-VELOCITY
     Coordinates (X,Y,Z):    1.000000E-03    1.000000E-03    2.500000E-01
     TEMPORAL STATISTIC: RMS
 269 ID: w_CL_RMS
     QUANTITY: W-VELOCITY
     Coordinates (X,Y,Z):    1.000000E-03    1.000000E-03    2.700000E-01
     TEMPORAL STATISTIC: RMS
 270 ID: w_CL_RMS
     QUANTITY: W-VELOCITY
     Coordinates (X,Y,Z):    1.000000E-03    1.000000E-03    2.900000E-01
     TEMPORAL STATISTIC: RMS
 271 ID: w_CL_RMS
     QUANTITY: W-VELOCITY
     Coordinates (X,Y,Z):    1.000000E-03    1.000000E-03    3.100000E-01
     TEMPORAL STATISTIC: RMS
 272 ID: w_CL_RMS
     QUANTITY: W-VELOCITY
     Coordinates (X,Y,Z):    1.000000E-03    1.000000E-03    3.300000E-01
     TEMPORAL STATISTIC: RMS
 273 ID: w_CL_RMS
     QUANTITY: W-VELOCITY
     Coordinates (X,Y,Z):    1.000000E-03    1.000000E-03    3.500000E-01
     TEMPORAL STATISTIC: RMS
 274 ID: w_CL_RMS
     QUANTITY: W-VELOCITY
     Coordinates (X,Y,Z):    1.000000E-03    1.000000E-03    3.700000E-01
     TEMPORAL STATISTIC: RMS
 275 ID: w_CL_RMS
     QUANTITY: W-VELOCITY
     Coordinates (X,Y,Z):    1.000000E-03    1.000000E-03    3.900000E-01
     TEMPORAL STATISTIC: RMS
 276 ID: w_CL_RMS
     QUANTITY: W-VELOCITY
     Coordinates (X,Y,Z):    1.000000E-03    1.000000E-03    4.100000E-01
     TEMPORAL STATISTIC: RMS
 277 ID: w_CL_RMS
     QUANTITY: W-VELOCITY
     Coordinates (X,Y,Z):    1.000000E-03    1.000000E-03    4.300000E-01
     TEMPORAL STATISTIC: RMS
 278 ID: w_CL_RMS
     QUANTITY: W-VELOCITY
     Coordinates (X,Y,Z):    1.000000E-03    1.000000E-03    4.500000E-01
     TEMPORAL STATISTIC: RMS
 279 ID: w_CL_RMS
     QUANTITY: W-VELOCITY
     Coordinates (X,Y,Z):    1.000000E-03    1.000000E-03    4.700000E-01
     TEMPORAL STATISTIC: RMS
 280 ID: w_CL_RMS
     QUANTITY: W-VELOCITY
     Coordinates (X,Y,Z):    1.000000E-03    1.000000E-03    4.900000E-01
     TEMPORAL STATISTIC: RMS
 281 ID: w_CL_RMS
     QUANTITY: W-VELOCITY
     Coordinates (X,Y,Z):    1.000000E-03    1.000000E-03    5.100000E-01
     TEMPORAL STATISTIC: RMS
 282 ID: w_CL_RMS
     QUANTITY: W-VELOCITY
     Coordinates (X,Y,Z):    1.000000E-03    1.000000E-03    5.300000E-01
     TEMPORAL STATISTIC: RMS
 283 ID: w_CL_RMS
     QUANTITY: W-VELOCITY
     Coordinates (X,Y,Z):    1.000000E-03    1.000000E-03    5.500000E-01
     TEMPORAL STATISTIC: RMS
 284 ID: w_CL_RMS
     QUANTITY: W-VELOCITY
     Coordinates (X,Y,Z):    1.000000E-03    1.000000E-03    5.700000E-01
     TEMPORAL STATISTIC: RMS
 285 ID: w_CL_RMS
     QUANTITY: W-VELOCITY
     Coordinates (X,Y,Z):    1.000000E-03    1.000000E-03    5.900000E-01
     TEMPORAL STATISTIC: RMS
 286 ID: w_CL_RMS
     QUANTITY: W-VELOCITY
     Coordinates (X,Y,Z):    1.000000E-03    1.000000E-03    6.100000E-01
     TEMPORAL STATISTIC: RMS
 287 ID: w_CL_RMS
     QUANTITY: W-VELOCITY
     Coordinates (X,Y,Z):    1.000000E-03    1.000000E-03    6.300000E-01
     TEMPORAL STATISTIC: RMS
 288 ID: w_CL_RMS
     QUANTITY: W-VELOCITY
     Coordinates (X,Y,Z):    1.000000E-03    1.000000E-03    6.500000E-01
     TEMPORAL STATISTIC: RMS
 289 ID: w_CL_RMS
     QUANTITY: W-VELOCITY
     Coordinates (X,Y,Z):    1.000000E-03    1.000000E-03    6.700000E-01
     TEMPORAL STATISTIC: RMS
 290 ID: w_CL_RMS
     QUANTITY: W-VELOCITY
     Coordinates (X,Y,Z):    1.000000E-03    1.000000E-03    6.900000E-01
     TEMPORAL STATISTIC: RMS
 291 ID: w_CL_RMS
     QUANTITY: W-VELOCITY
     Coordinates (X,Y,Z):    1.000000E-03    1.000000E-03    7.100000E-01
     TEMPORAL STATISTIC: RMS
 292 ID: w_CL_RMS
     QUANTITY: W-VELOCITY
     Coordinates (X,Y,Z):    1.000000E-03    1.000000E-03    7.300000E-01
     TEMPORAL STATISTIC: RMS
 293 ID: w_CL_RMS
     QUANTITY: W-VELOCITY
     Coordinates (X,Y,Z):    1.000000E-03    1.000000E-03    7.500000E-01
     TEMPORAL STATISTIC: RMS
 294 ID: w_CL_RMS
     QUANTITY: W-VELOCITY
     Coordinates (X,Y,Z):    1.000000E-03    1.000000E-03    7.700000E-01
     TEMPORAL STATISTIC: RMS
 295 ID: w_CL_RMS
     QUANTITY: W-VELOCITY
     Coordinates (X,Y,Z):    1.000000E-03    1.000000E-03    7.900000E-01
     TEMPORAL STATISTIC: RMS
 296 ID: w_CL_RMS
     QUANTITY: W-VELOCITY
     Coordinates (X,Y,Z):    1.000000E-03    1.000000E-03    8.100000E-01
     TEMPORAL STATISTIC: RMS
 297 ID: w_CL_RMS
     QUANTITY: W-VELOCITY
     Coordinates (X,Y,Z):    1.000000E-03    1.000000E-03    8.300000E-01
     TEMPORAL STATISTIC: RMS
 298 ID: w_CL_RMS
     QUANTITY: W-VELOCITY
     Coordinates (X,Y,Z):    1.000000E-03    1.000000E-03    8.500000E-01
     TEMPORAL STATISTIC: RMS
 299 ID: w_CL_RMS
     QUANTITY: W-VELOCITY
     Coordinates (X,Y,Z):    1.000000E-03    1.000000E-03    8.700000E-01
     TEMPORAL STATISTIC: RMS
 300 ID: w_CL_RMS
     QUANTITY: W-VELOCITY
     Coordinates (X,Y,Z):    1.000000E-03    1.000000E-03    8.900000E-01
     TEMPORAL STATISTIC: RMS
 301 ID: w_CL_RMS
     QUANTITY: W-VELOCITY
     Coordinates (X,Y,Z):    1.000000E-03    1.000000E-03    9.100000E-01
     TEMPORAL STATISTIC: RMS
 302 ID: w_CL_RMS
     QUANTITY: W-VELOCITY
     Coordinates (X,Y,Z):    1.000000E-03    1.000000E-03    9.300000E-01
     TEMPORAL STATISTIC: RMS
 303 ID: w_CL_RMS
     QUANTITY: W-VELOCITY
     Coordinates (X,Y,Z):    1.000000E-03    1.000000E-03    9.500000E-01
     TEMPORAL STATISTIC: RMS
 304 ID: w_CL_RMS
     QUANTITY: W-VELOCITY
     Coordinates (X,Y,Z):    1.000000E-03    1.000000E-03    9.700000E-01
     TEMPORAL STATISTIC: RMS
 305 ID: w_CL_RMS
     QUANTITY: W-VELOCITY
     Coordinates (X,Y,Z):    1.000000E-03    1.000000E-03    9.900000E-01
     TEMPORAL STATISTIC: RMS
 306 ID: X_O2
     QUANTITY: VOLUME FRACTION
     Species ID: OXYGEN
     Coordinates (X,Y,Z):    1.000000E-03    1.000000E-03    1.000000E-02
     TEMPORAL STATISTIC: RUNNING AVERAGE
 307 ID: X_O2
     QUANTITY: VOLUME FRACTION
     Species ID: OXYGEN
     Coordinates (X,Y,Z):    1.000000E-03    1.000000E-03    3.000000E-02
     TEMPORAL STATISTIC: RUNNING AVERAGE
 308 ID: X_O2
     QUANTITY: VOLUME FRACTION
     Species ID: OXYGEN
     Coordinates (X,Y,Z):    1.000000E-03    1.000000E-03    5.000000E-02
     TEMPORAL STATISTIC: RUNNING AVERAGE
 309 ID: X_O2
     QUANTITY: VOLUME FRACTION
     Species ID: OXYGEN
     Coordinates (X,Y,Z):    1.000000E-03    1.000000E-03    7.000000E-02
     TEMPORAL STATISTIC: RUNNING AVERAGE
 310 ID: X_O2
     QUANTITY: VOLUME FRACTION
     Species ID: OXYGEN
     Coordinates (X,Y,Z):    1.000000E-03    1.000000E-03    9.000000E-02
     TEMPORAL STATISTIC: RUNNING AVERAGE
 311 ID: X_O2
     QUANTITY: VOLUME FRACTION
     Species ID: OXYGEN
     Coordinates (X,Y,Z):    1.000000E-03    1.000000E-03    1.100000E-01
     TEMPORAL STATISTIC: RUNNING AVERAGE
 312 ID: X_O2
     QUANTITY: VOLUME FRACTION
     Species ID: OXYGEN
     Coordinates (X,Y,Z):    1.000000E-03    1.000000E-03    1.300000E-01
     TEMPORAL STATISTIC: RUNNING AVERAGE
 313 ID: X_O2
     QUANTITY: VOLUME FRACTION
     Species ID: OXYGEN
     Coordinates (X,Y,Z):    1.000000E-03    1.000000E-03    1.500000E-01
     TEMPORAL STATISTIC: RUNNING AVERAGE
 314 ID: X_O2
     QUANTITY: VOLUME FRACTION
     Species ID: OXYGEN
     Coordinates (X,Y,Z):    1.000000E-03    1.000000E-03    1.700000E-01
     TEMPORAL STATISTIC: RUNNING AVERAGE
 315 ID: X_O2
     QUANTITY: VOLUME FRACTION
     Species ID: OXYGEN
     Coordinates (X,Y,Z):    1.000000E-03    1.000000E-03    1.900000E-01
     TEMPORAL STATISTIC: RUNNING AVERAGE
 316 ID: X_O2
     QUANTITY: VOLUME FRACTION
     Species ID: OXYGEN
     Coordinates (X,Y,Z):    1.000000E-03    1.000000E-03    2.100000E-01
     TEMPORAL STATISTIC: RUNNING AVERAGE
 317 ID: X_O2
     QUANTITY: VOLUME FRACTION
     Species ID: OXYGEN
     Coordinates (X,Y,Z):    1.000000E-03    1.000000E-03    2.300000E-01
     TEMPORAL STATISTIC: RUNNING AVERAGE
 318 ID: X_O2
     QUANTITY: VOLUME FRACTION
     Species ID: OXYGEN
     Coordinates (X,Y,Z):    1.000000E-03    1.000000E-03    2.500000E-01
     TEMPORAL STATISTIC: RUNNING AVERAGE
 319 ID: X_O2
     QUANTITY: VOLUME FRACTION
     Species ID: OXYGEN
     Coordinates (X,Y,Z):    1.000000E-03    1.000000E-03    2.700000E-01
     TEMPORAL STATISTIC: RUNNING AVERAGE
 320 ID: X_O2
     QUANTITY: VOLUME FRACTION
     Species ID: OXYGEN
     Coordinates (X,Y,Z):    1.000000E-03    1.000000E-03    2.900000E-01
     TEMPORAL STATISTIC: RUNNING AVERAGE
 321 ID: X_O2
     QUANTITY: VOLUME FRACTION
     Species ID: OXYGEN
     Coordinates (X,Y,Z):    1.000000E-03    1.000000E-03    3.100000E-01
     TEMPORAL STATISTIC: RUNNING AVERAGE
 322 ID: X_O2
     QUANTITY: VOLUME FRACTION
     Species ID: OXYGEN
     Coordinates (X,Y,Z):    1.000000E-03    1.000000E-03    3.300000E-01
     TEMPORAL STATISTIC: RUNNING AVERAGE
 323 ID: X_O2
     QUANTITY: VOLUME FRACTION
     Species ID: OXYGEN
     Coordinates (X,Y,Z):    1.000000E-03    1.000000E-03    3.500000E-01
     TEMPORAL STATISTIC: RUNNING AVERAGE
 324 ID: X_O2
     QUANTITY: VOLUME FRACTION
     Species ID: OXYGEN
     Coordinates (X,Y,Z):    1.000000E-03    1.000000E-03    3.700000E-01
     TEMPORAL STATISTIC: RUNNING AVERAGE
 325 ID: X_O2
     QUANTITY: VOLUME FRACTION
     Species ID: OXYGEN
     Coordinates (X,Y,Z):    1.000000E-03    1.000000E-03    3.900000E-01
     TEMPORAL STATISTIC: RUNNING AVERAGE
 326 ID: X_O2
     QUANTITY: VOLUME FRACTION
     Species ID: OXYGEN
     Coordinates (X,Y,Z):    1.000000E-03    1.000000E-03    4.100000E-01
     TEMPORAL STATISTIC: RUNNING AVERAGE
 327 ID: X_O2
     QUANTITY: VOLUME FRACTION
     Species ID: OXYGEN
     Coordinates (X,Y,Z):    1.000000E-03    1.000000E-03    4.300000E-01
     TEMPORAL STATISTIC: RUNNING AVERAGE
 328 ID: X_O2
     QUANTITY: VOLUME FRACTION
     Species ID: OXYGEN
     Coordinates (X,Y,Z):    1.000000E-03    1.000000E-03    4.500000E-01
     TEMPORAL STATISTIC: RUNNING AVERAGE
 329 ID: X_O2
     QUANTITY: VOLUME FRACTION
     Species ID: OXYGEN
     Coordinates (X,Y,Z):    1.000000E-03    1.000000E-03    4.700000E-01
     TEMPORAL STATISTIC: RUNNING AVERAGE
 330 ID: X_O2
     QUANTITY: VOLUME FRACTION
     Species ID: OXYGEN
     Coordinates (X,Y,Z):    1.000000E-03    1.000000E-03    4.900000E-01
     TEMPORAL STATISTIC: RUNNING AVERAGE
 331 ID: X_O2
     QUANTITY: VOLUME FRACTION
     Species ID: OXYGEN
     Coordinates (X,Y,Z):    1.000000E-03    1.000000E-03    5.100000E-01
     TEMPORAL STATISTIC: RUNNING AVERAGE
 332 ID: X_O2
     QUANTITY: VOLUME FRACTION
     Species ID: OXYGEN
     Coordinates (X,Y,Z):    1.000000E-03    1.000000E-03    5.300000E-01
     TEMPORAL STATISTIC: RUNNING AVERAGE
 333 ID: X_O2
     QUANTITY: VOLUME FRACTION
     Species ID: OXYGEN
     Coordinates (X,Y,Z):    1.000000E-03    1.000000E-03    5.500000E-01
     TEMPORAL STATISTIC: RUNNING AVERAGE
 334 ID: X_O2
     QUANTITY: VOLUME FRACTION
     Species ID: OXYGEN
     Coordinates (X,Y,Z):    1.000000E-03    1.000000E-03    5.700000E-01
     TEMPORAL STATISTIC: RUNNING AVERAGE
 335 ID: X_O2
     QUANTITY: VOLUME FRACTION
     Species ID: OXYGEN
     Coordinates (X,Y,Z):    1.000000E-03    1.000000E-03    5.900000E-01
     TEMPORAL STATISTIC: RUNNING AVERAGE
 336 ID: X_O2
     QUANTITY: VOLUME FRACTION
     Species ID: OXYGEN
     Coordinates (X,Y,Z):    1.000000E-03    1.000000E-03    6.100000E-01
     TEMPORAL STATISTIC: RUNNING AVERAGE
 337 ID: X_O2
     QUANTITY: VOLUME FRACTION
     Species ID: OXYGEN
     Coordinates (X,Y,Z):    1.000000E-03    1.000000E-03    6.300000E-01
     TEMPORAL STATISTIC: RUNNING AVERAGE
 338 ID: X_O2
     QUANTITY: VOLUME FRACTION
     Species ID: OXYGEN
     Coordinates (X,Y,Z):    1.000000E-03    1.000000E-03    6.500000E-01
     TEMPORAL STATISTIC: RUNNING AVERAGE
 339 ID: X_O2
     QUANTITY: VOLUME FRACTION
     Species ID: OXYGEN
     Coordinates (X,Y,Z):    1.000000E-03    1.000000E-03    6.700000E-01
     TEMPORAL STATISTIC: RUNNING AVERAGE
 340 ID: X_O2
     QUANTITY: VOLUME FRACTION
     Species ID: OXYGEN
     Coordinates (X,Y,Z):    1.000000E-03    1.000000E-03    6.900000E-01
     TEMPORAL STATISTIC: RUNNING AVERAGE
 341 ID: X_O2
     QUANTITY: VOLUME FRACTION
     Species ID: OXYGEN
     Coordinates (X,Y,Z):    1.000000E-03    1.000000E-03    7.100000E-01
     TEMPORAL STATISTIC: RUNNING AVERAGE
 342 ID: X_O2
     QUANTITY: VOLUME FRACTION
     Species ID: OXYGEN
[...]
       Mesh    8
       Max CFL number:  0.81E+00 at (4,1,37)
       Max divergence:  0.11E+02 at (1,5,7)
       Min divergence: -0.12E+02 at (3,8,19)
       Max VN number:   0.18E+00 at (3,8,19)
       Total Heat Release Rate:              2.221 kW
       Radiation Loss to Boundaries:        -1.963 kW
 
       Time Step    2900   August 15, 2023  12:56:53
       Step Size:    0.183E-02 s, Total Time:      10.52 s
       Pressure Iterations: 6
       Maximum Velocity Error:  0.98E-02 on Mesh 6 at (1,32,35)
       Maximum Pressure Error:  0.15E+05 on Mesh 6 at (2,30,16)
       ---------------------------------------------------------------
       Mesh    1
       Max CFL number:  0.70E+00 at (32,30,44)
       Max divergence:  0.30E+02 at (31,30,48)
       Min divergence: -0.91E+01 at (28,30,14)
       Max VN number:   0.19E+00 at (31,30,47)
       Total Heat Release Rate:             10.582 kW
       Radiation Loss to Boundaries:        -2.482 kW
       Mesh    2
       Max CFL number:  0.69E+00 at (1,31,43)
       Max divergence:  0.25E+02 at (1,31,25)
       Min divergence: -0.83E+01 at (4,29,14)
       Max VN number:   0.13E+00 at (1,30,47)
       Total Heat Release Rate:             10.123 kW
       Radiation Loss to Boundaries:        -2.860 kW
       Mesh    3
       Max CFL number:  0.55E+00 at (31,1,48)
       Max divergence:  0.35E+02 at (32,2,41)
       Min divergence: -0.97E+01 at (32,4,40)
       Max VN number:   0.18E+00 at (32,4,39)
       Total Heat Release Rate:             11.011 kW
       Radiation Loss to Boundaries:        -2.504 kW
       Mesh    4
       Max CFL number:  0.60E+00 at (1,1,36)
       Max divergence:  0.41E+02 at (1,2,40)
       Min divergence: -0.96E+01 at (3,3,47)
       Max VN number:   0.12E+00 at (4,1,47)
       Total Heat Release Rate:             13.866 kW
       Radiation Loss to Boundaries:        -3.364 kW
       Mesh    5
       Max CFL number:  0.74E+00 at (32,32,34)
       Max divergence:  0.45E+02 at (31,31,2)
       Min divergence: -0.10E+02 at (32,31,3)
       Max VN number:   0.25E+00 at (32,31,3)
       Total Heat Release Rate:              1.006 kW
       Radiation Loss to Boundaries:        -0.157 kW
       Mesh    6
       Max CFL number:  0.85E+00 at (2,30,15)
       Max divergence:  0.31E+02 at (3,30,2)
       Min divergence: -0.13E+02 at (4,30,12)
       Max VN number:   0.23E+00 at (2,30,15)
       Total Heat Release Rate:              7.164 kW
       Radiation Loss to Boundaries:        -2.088 kW
       Mesh    7
       Max CFL number:  0.78E+00 at (31,1,20)
       Max divergence:  0.19E+02 at (32,1,4)
       Min divergence: -0.13E+02 at (31,1,8)
       Max VN number:   0.17E+00 at (28,3,24)
       Total Heat Release Rate:              1.339 kW
       Radiation Loss to Boundaries:        -0.614 kW
       Mesh    8
       Max CFL number:  0.76E+00 at (3,2,38)
       Max divergence:  0.53E+02 at (2,1,6)
       Min divergence: -0.11E+02 at (1,2,8)
       Max VN number:   0.21E+00 at (3,3,4)
       Total Heat Release Rate:              4.192 kW
       Radiation Loss to Boundaries:        -0.852 kW
 
       Time Step    3000   August 15, 2023  12:58:46
       Step Size:    0.162E-02 s, Total Time:      10.69 s
       Pressure Iterations: 7
       Maximum Velocity Error:  0.92E-02 on Mesh 5 at (32,32,18)
       Maximum Pressure Error:  0.11E+05 on Mesh 5 at (31,31,2)
       ---------------------------------------------------------------
       Mesh    1
       Max CFL number:  0.66E+00 at (31,31,48)
       Max divergence:  0.23E+02 at (29,27,14)
       Min divergence: -0.17E+02 at (30,32,47)
       Max VN number:   0.16E+00 at (31,31,48)
       Total Heat Release Rate:              9.712 kW
       Radiation Loss to Boundaries:        -2.521 kW
       Mesh    2
       Max CFL number:  0.48E+00 at (2,31,46)
       Max divergence:  0.32E+02 at (1,32,30)
       Min divergence: -0.86E+01 at (2,29,42)
       Max VN number:   0.12E+00 at (1,30,47)
       Total Heat Release Rate:              8.102 kW
       Radiation Loss to Boundaries:        -1.581 kW
       Mesh    3
       Max CFL number:  0.47E+00 at (30,1,37)
       Max divergence:  0.28E+02 at (26,1,14)
       Min divergence: -0.81E+01 at (31,4,42)
       Max VN number:   0.12E+00 at (30,1,37)
       Total Heat Release Rate:             13.009 kW
       Radiation Loss to Boundaries:        -2.851 kW
       Mesh    4
       Max CFL number:  0.42E+00 at (1,2,33)
       Max divergence:  0.35E+02 at (3,4,27)
       Min divergence: -0.19E+02 at (1,2,33)
       Max VN number:   0.90E-01 at (4,4,28)
       Total Heat Release Rate:              9.478 kW
       Radiation Loss to Boundaries:        -2.306 kW
       Mesh    5
       Max CFL number:  0.79E+00 at (32,32,19)
       Max divergence:  0.18E+02 at (30,30,1)
       Min divergence: -0.19E+02 at (30,29,22)
       Max VN number:   0.19E+00 at (30,29,22)
       Total Heat Release Rate:              0.292 kW
       Radiation Loss to Boundaries:        -0.142 kW
       Mesh    6
       Max CFL number:  0.76E+00 at (1,32,16)
       Max divergence:  0.16E+02 at (7,29,26)
       Min divergence: -0.11E+02 at (7,28,25)
       Max VN number:   0.17E+00 at (1,31,23)
       Total Heat Release Rate:              0.483 kW
       Radiation Loss to Boundaries:        -0.341 kW
       Mesh    7
       Max CFL number:  0.83E+00 at (32,1,19)
       Max divergence:  0.12E+02 at (31,2,9)
       Min divergence: -0.12E+02 at (32,1,11)
       Max VN number:   0.22E+00 at (32,1,19)
       Total Heat Release Rate:              0.284 kW
       Radiation Loss to Boundaries:        -0.179 kW
       Mesh    8
       Max CFL number:  0.73E+00 at (1,1,17)
       Max divergence:  0.17E+02 at (5,2,30)
       Min divergence: -0.23E+02 at (4,2,30)
       Max VN number:   0.25E+00 at (4,2,30)
       Total Heat Release Rate:              0.314 kW
       Radiation Loss to Boundaries:        -0.260 kW
 
       Time Step    3100   August 15, 2023  13:00:39
       Step Size:    0.215E-02 s, Total Time:      10.90 s
       Pressure Iterations: 7
       Maximum Velocity Error:  0.97E-02 on Mesh 3 at (32,0,42)
       Maximum Pressure Error:  0.14E+05 on Mesh 7 at (28,4,7)
       ---------------------------------------------------------------
       Mesh    1
       Max CFL number:  0.88E+00 at (32,32,44)
       Max divergence:  0.36E+02 at (31,31,48)
       Min divergence: -0.12E+02 at (29,29,14)
       Max VN number:   0.20E+00 at (32,32,48)
       Total Heat Release Rate:             12.128 kW
       Radiation Loss to Boundaries:        -3.050 kW
       Mesh    2
       Max CFL number:  0.76E+00 at (1,32,45)
       Max divergence:  0.27E+02 at (1,28,48)
       Min divergence: -0.86E+01 at (4,28,47)
       Max VN number:   0.18E+00 at (2,31,47)
       Total Heat Release Rate:              8.903 kW
       Radiation Loss to Boundaries:        -2.459 kW
       Mesh    3
       Max CFL number:  0.88E+00 at (31,2,37)
       Max divergence:  0.27E+02 at (29,2,18)
       Min divergence: -0.85E+01 at (30,3,48)
       Max VN number:   0.18E+00 at (31,2,37)
       Total Heat Release Rate:             13.871 kW
       Radiation Loss to Boundaries:        -4.177 kW
       Mesh    4
       Max CFL number:  0.95E+00 at (2,4,42)
       Max divergence:  0.41E+02 at (1,1,35)
       Min divergence: -0.85E+01 at (4,3,36)
       Max VN number:   0.24E+00 at (2,4,42)
       Total Heat Release Rate:             13.872 kW
       Radiation Loss to Boundaries:        -3.284 kW
       Mesh    5
       Max CFL number:  0.84E+00 at (32,32,1)
       Max divergence:  0.45E+02 at (32,32,1)
       Min divergence: -0.11E+02 at (30,29,6)
       Max VN number:   0.31E+00 at (32,32,1)
       Total Heat Release Rate:              4.734 kW
       Radiation Loss to Boundaries:        -0.735 kW
       Mesh    6
       Max CFL number:  0.73E+00 at (3,28,2)
       Max divergence:  0.15E+02 at (1,32,1)
       Min divergence: -0.12E+02 at (4,29,2)
       Max VN number:   0.18E+00 at (3,28,1)
       Total Heat Release Rate:              1.460 kW
       Radiation Loss to Boundaries:        -0.253 kW
       Mesh    7
       Max CFL number:  0.79E+00 at (32,4,2)
       Max divergence:  0.42E+02 at (30,1,1)
       Min divergence: -0.19E+02 at (28,6,9)
       Max VN number:   0.26E+00 at (28,6,8)
       Total Heat Release Rate:              9.900 kW
       Radiation Loss to Boundaries:        -2.558 kW
       Mesh    8
       Max CFL number:  0.77E+00 at (1,4,2)
       Max divergence:  0.20E+02 at (1,1,1)
       Min divergence: -0.64E+01 at (1,4,18)
       Max VN number:   0.14E+00 at (3,5,28)
       Total Heat Release Rate:              0.662 kW
       Radiation Loss to Boundaries:        -0.129 kW
 
       Time Step    3200   August 15, 2023  13:02:44
       Step Size:    0.195E-02 s, Total Time:      11.09 s
       Pressure Iterations: 7
       Maximum Velocity Error:  0.67E-02 on Mesh 7 at (32,1,24)
       Maximum Pressure Error:  0.67E+04 on Mesh 8 at (2,4,5)
       ---------------------------------------------------------------
       Mesh    1
       Max CFL number:  0.65E+00 at (29,31,28)
       Max divergence:  0.62E+02 at (30,31,28)
       Min divergence: -0.84E+01 at (29,29,38)
       Max VN number:   0.18E+00 at (30,32,30)
       Total Heat Release Rate:             15.951 kW
       Radiation Loss to Boundaries:        -3.335 kW
       Mesh    2
       Max CFL number:  0.57E+00 at (3,28,37)
       Max divergence:  0.50E+02 at (2,29,37)
       Min divergence: -0.13E+02 at (4,28,37)
       Max VN number:   0.17E+00 at (1,30,48)
       Total Heat Release Rate:             17.055 kW
       Radiation Loss to Boundaries:        -5.192 kW
       Mesh    3
       Max CFL number:  0.51E+00 at (30,3,34)
       Max divergence:  0.32E+02 at (30,2,34)
       Min divergence: -0.11E+02 at (31,3,29)
       Max VN number:   0.15E+00 at (29,3,34)
       Total Heat Release Rate:             12.503 kW
       Radiation Loss to Boundaries:        -2.738 kW
       Mesh    4
       Max CFL number:  0.60E+00 at (2,4,48)
       Max divergence:  0.39E+02 at (3,1,43)
       Min divergence: -0.11E+02 at (6,3,39)
       Max VN number:   0.20E+00 at (3,1,43)
       Total Heat Release Rate:             12.227 kW
       Radiation Loss to Boundaries:        -3.037 kW
       Mesh    5
       Max CFL number:  0.80E+00 at (32,32,25)
       Max divergence:  0.94E+01 at (32,32,1)
       Min divergence: -0.13E+02 at (31,32,3)
       Max VN number:   0.16E+00 at (32,32,25)
       Total Heat Release Rate:              0.099 kW
       Radiation Loss to Boundaries:        -0.173 kW
       Mesh    6
       Max CFL number:  0.82E+00 at (2,32,20)
       Max divergence:  0.76E+01 at (2,31,1)
       Min divergence: -0.10E+02 at (1,30,1)
       Max VN number:   0.16E+00 at (1,23,16)
       Total Heat Release Rate:              0.025 kW
       Radiation Loss to Boundaries:        -0.006 kW
       Mesh    7
       Max CFL number:  0.78E+00 at (30,1,23)
       Max divergence:  0.11E+02 at (25,1,27)
       Min divergence: -0.12E+02 at (30,8,27)
       Max VN number:   0.19E+00 at (30,8,27)
       Total Heat Release Rate:              0.175 kW
       Radiation Loss to Boundaries:        -0.063 kW
       Mesh    8
       Max CFL number:  0.85E+00 at (2,3,18)
       Max divergence:  0.79E+01 at (2,1,1)
       Min divergence: -0.96E+01 at (2,4,5)
       Max VN number:   0.20E+00 at (3,1,23)
       Total Heat Release Rate:              0.418 kW
       Radiation Loss to Boundaries:        -0.225 kW
 
       Time Step    3300   August 15, 2023  13:04:48
       Step Size:    0.185E-02 s, Total Time:      11.28 s
       Pressure Iterations: 7
       Maximum Velocity Error:  0.74E-02 on Mesh 6 at (1,32,1)
       Maximum Pressure Error:  0.13E+05 on Mesh 3 at (29,2,45)
       ---------------------------------------------------------------
       Mesh    1
       Max CFL number:  0.80E+00 at (32,31,48)
       Max divergence:  0.28E+02 at (32,32,35)
       Min divergence: -0.76E+01 at (32,32,48)
       Max VN number:   0.20E+00 at (32,31,48)
       Total Heat Release Rate:              8.961 kW
       Radiation Loss to Boundaries:        -1.494 kW
       Mesh    2
       Max CFL number:  0.57E+00 at (1,32,46)
       Max divergence:  0.22E+02 at (1,32,35)
       Min divergence: -0.74E+01 at (3,32,33)
       Max VN number:   0.13E+00 at (3,32,33)
       Total Heat Release Rate:              8.423 kW
       Radiation Loss to Boundaries:        -1.692 kW
       Mesh    3
       Max CFL number:  0.82E+00 at (30,2,45)
       Max divergence:  0.32E+02 at (32,3,42)
       Min divergence: -0.11E+02 at (31,2,19)
       Max VN number:   0.18E+00 at (30,2,45)
       Total Heat Release Rate:             14.906 kW
       Radiation Loss to Boundaries:        -2.673 kW
       Mesh    4
       Max CFL number:  0.68E+00 at (1,1,48)
       Max divergence:  0.24E+02 at (1,2,34)
       Min divergence: -0.90E+01 at (1,2,23)
       Max VN number:   0.14E+00 at (1,2,45)
       Total Heat Release Rate:              9.236 kW
       Radiation Loss to Boundaries:        -1.626 kW
       Mesh    5
       Max CFL number:  0.87E+00 at (31,32,4)
       Max divergence:  0.10E+02 at (28,30,5)
       Min divergence: -0.99E+01 at (31,32,5)
       Max VN number:   0.20E+00 at (31,32,4)
       Total Heat Release Rate:              0.482 kW
       Radiation Loss to Boundaries:        -0.229 kW
       Mesh    6
       Max CFL number:  0.88E+00 at (1,32,6)
       Max divergence:  0.14E+02 at (12,27,5)
       Min divergence: -0.10E+02 at (2,32,16)
       Max VN number:   0.20E+00 at (1,32,9)
       Total Heat Release Rate:              6.253 kW
       Radiation Loss to Boundaries:        -2.646 kW
       Mesh    7
       Max CFL number:  0.83E+00 at (32,3,13)
       Max divergence:  0.71E+01 at (32,2,3)
       Min divergence: -0.87E+01 at (31,2,2)
       Max VN number:   0.20E+00 at (29,1,12)
       Total Heat Release Rate:              0.499 kW
       Radiation Loss to Boundaries:        -0.529 kW
       Mesh    8
       Max CFL number:  0.82E+00 at (2,1,9)
       Max divergence:  0.14E+02 at (1,1,2)
       Min divergence: -0.88E+01 at (3,1,20)
       Max VN number:   0.17E+00 at (4,3,15)
       Total Heat Release Rate:              2.652 kW
       Radiation Loss to Boundaries:        -1.761 kW
 
       Time Step    3400   August 15, 2023  13:06:58
       Step Size:    0.180E-02 s, Total Time:      11.46 s
       Pressure Iterations: 7
       Maximum Velocity Error:  0.65E-02 on Mesh 2 at (4,32,48)
       Maximum Pressure Error:  0.15E+05 on Mesh 7 at (28,5,14)
       ---------------------------------------------------------------
       Mesh    1
       Max CFL number:  0.70E+00 at (31,31,38)
       Max divergence:  0.32E+02 at (31,32,41)
       Min divergence: -0.88E+01 at (30,32,41)
       Max VN number:   0.18E+00 at (31,32,41)
       Total Heat Release Rate:             10.873 kW
       Radiation Loss to Boundaries:        -2.385 kW
       Mesh    2
       Max CFL number:  0.71E+00 at (1,31,48)
       Max divergence:  0.42E+02 at (3,30,45)
       Min divergence: -0.12E+02 at (1,29,48)
       Max VN number:   0.19E+00 at (1,31,48)
       Total Heat Release Rate:             13.257 kW
       Radiation Loss to Boundaries:        -3.416 kW
       Mesh    3
       Max CFL number:  0.63E+00 at (32,1,42)
       Max divergence:  0.32E+02 at (30,2,27)
       Min divergence: -0.61E+01 at (32,4,16)
       Max VN number:   0.12E+00 at (31,1,42)
       Total Heat Release Rate:             11.522 kW
       Radiation Loss to Boundaries:        -2.631 kW
       Mesh    4
       Max CFL number:  0.69E+00 at (2,1,40)
       Max divergence:  0.51E+02 at (2,5,48)
       Min divergence: -0.12E+02 at (3,2,45)
       Max VN number:   0.16E+00 at (3,2,28)
       Total Heat Release Rate:             13.009 kW
       Radiation Loss to Boundaries:        -3.572 kW
       Mesh    5
       Max CFL number:  0.69E+00 at (32,32,21)
       Max divergence:  0.20E+02 at (31,32,1)
       Min divergence: -0.58E+01 at (27,32,10)
       Max VN number:   0.13E+00 at (27,30,19)
       Total Heat Release Rate:              0.344 kW
       Radiation Loss to Boundaries:        -0.038 kW
       Mesh    6
       Max CFL number:  0.71E+00 at (2,32,32)
       Max divergence:  0.20E+02 at (2,32,1)
       Min divergence: -0.66E+01 at (4,31,34)
       Max VN number:   0.16E+00 at (1,31,1)
       Total Heat Release Rate:              0.629 kW
       Radiation Loss to Boundaries:        -0.210 kW
       Mesh    7
       Max CFL number:  0.78E+00 at (30,3,18)
       Max divergence:  0.73E+02 at (30,4,7)
       Min divergence: -0.15E+02 at (29,3,19)
       Max VN number:   0.26E+00 at (30,4,18)
       Total Heat Release Rate:             17.268 kW
       Radiation Loss to Boundaries:        -4.076 kW
       Mesh    8
       Max CFL number:  0.87E+00 at (3,1,30)
       Max divergence:  0.46E+02 at (3,4,1)
       Min divergence: -0.10E+02 at (1,4,8)
       Max VN number:   0.27E+00 at (4,1,3)
       Total Heat Release Rate:              6.012 kW
       Radiation Loss to Boundaries:        -1.763 kW
 
       Time Step    3500   August 15, 2023  13:09:09
       Step Size:    0.160E-02 s, Total Time:      11.64 s
       Pressure Iterations: 7
       Maximum Velocity Error:  0.81E-02 on Mesh 7 at (32,1,19)
       Maximum Pressure Error:  0.98E+04 on Mesh 3 at (31,3,43)
       ---------------------------------------------------------------
       Mesh    1
       Max CFL number:  0.57E+00 at (30,32,48)
       Max divergence:  0.25E+02 at (27,29,14)
       Min divergence: -0.77E+01 at (31,31,19)
       Max VN number:   0.13E+00 at (31,31,40)
       Total Heat Release Rate:              8.892 kW
       Radiation Loss to Boundaries:        -2.111 kW
       Mesh    2
       Max CFL number:  0.60E+00 at (3,32,48)
       Max divergence:  0.30E+02 at (2,31,35)
       Min divergence: -0.12E+02 at (2,31,46)
       Max VN number:   0.14E+00 at (4,32,47)
       Total Heat Release Rate:             10.120 kW
       Radiation Loss to Boundaries:        -2.540 kW
       Mesh    3
       Max CFL number:  0.63E+00 at (31,3,42)
       Max divergence:  0.55E+02 at (32,2,43)
       Min divergence: -0.11E+02 at (30,1,46)
       Max VN number:   0.18E+00 at (31,3,42)
       Total Heat Release Rate:             13.012 kW
       Radiation Loss to Boundaries:        -2.708 kW
       Mesh    4
       Max CFL number:  0.57E+00 at (2,1,43)
       Max divergence:  0.36E+02 at (5,5,15)
       Min divergence: -0.14E+02 at (4,2,34)
       Max VN number:   0.13E+00 at (1,4,39)
       Total Heat Release Rate:             14.930 kW
       Radiation Loss to Boundaries:        -3.441 kW
       Mesh    5
       Max CFL number:  0.73E+00 at (32,32,15)
       Max divergence:  0.20E+02 at (31,30,8)
       Min divergence: -0.10E+02 at (29,31,3)
       Max VN number:   0.19E+00 at (31,30,8)
       Total Heat Release Rate:              1.643 kW
       Radiation Loss to Boundaries:        -0.854 kW
       Mesh    6
       Max CFL number:  0.68E+00 at (1,32,21)
       Max divergence:  0.32E+02 at (3,31,3)
       Min divergence: -0.88E+01 at (2,31,8)
       Max VN number:   0.17E+00 at (1,32,20)
       Total Heat Release Rate:              3.868 kW
       Radiation Loss to Boundaries:        -0.940 kW
       Mesh    7
       Max CFL number:  0.82E+00 at (32,1,18)
       Max divergence:  0.11E+02 at (31,1,7)
       Min divergence: -0.75E+01 at (28,6,23)
       Max VN number:   0.18E+00 at (32,1,19)
       Total Heat Release Rate:              0.562 kW
       Radiation Loss to Boundaries:        -0.256 kW
       Mesh    8
       Max CFL number:  0.78E+00 at (2,1,15)
       Max divergence:  0.34E+02 at (4,1,1)
       Min divergence: -0.12E+02 at (3,3,5)
       Max VN number:   0.18E+00 at (4,5,24)
       Total Heat Release Rate:              1.506 kW
       Radiation Loss to Boundaries:        -0.878 kW
 
