
 Fire Dynamics Simulator

 Current Date     : August 17, 2023  14:53:19
 Revision         : FDS-6.8.0-564-g879930a-master
 Revision Date    : Wed Aug 16 13:01:02 2023 -0400
 Compiler         : ifort version 2021.7.1
 Compilation Date : Aug 16, 2023 16:23:58

 MPI Enabled;    Number of MPI Processes:       8
 OpenMP Disabled

 MPI version: 3.1
 MPI library version: Intel(R) MPI Library 2021.7 for Linux* OS


 Job TITLE        : (Concatenated) NIST Acetone Pool, 2 cm resolution
 Job ID string    : NIST_Acetone_GEOM_Predicted_2cm_cat


 Grid Dimensions, Mesh     1

   Cells in the X Direction            32
   Cells in the Y Direction            32
   Cells in the Z Direction            48
   Number of Grid Cells             49152


 Physical Dimensions, Mesh     1

   Length (m)                       0.640
   Width  (m)                       0.640
   Height (m)                       0.960
   Initial Time Step (s)            0.023

 Grid Dimensions, Mesh     2

   Cells in the X Direction            32
   Cells in the Y Direction            32
   Cells in the Z Direction            48
   Number of Grid Cells             49152


 Physical Dimensions, Mesh     2

   Length (m)                       0.640
   Width  (m)                       0.640
   Height (m)                       0.960
   Initial Time Step (s)            0.023

 Grid Dimensions, Mesh     3

   Cells in the X Direction            32
   Cells in the Y Direction            32
   Cells in the Z Direction            48
   Number of Grid Cells             49152


 Physical Dimensions, Mesh     3

   Length (m)                       0.640
   Width  (m)                       0.640
   Height (m)                       0.960
   Initial Time Step (s)            0.023

 Grid Dimensions, Mesh     4

   Cells in the X Direction            32
   Cells in the Y Direction            32
   Cells in the Z Direction            48
   Number of Grid Cells             49152


 Physical Dimensions, Mesh     4

   Length (m)                       0.640
   Width  (m)                       0.640
   Height (m)                       0.960
   Initial Time Step (s)            0.023

 Grid Dimensions, Mesh     5

   Cells in the X Direction            32
   Cells in the Y Direction            32
   Cells in the Z Direction            48
   Number of Grid Cells             49152


 Physical Dimensions, Mesh     5

   Length (m)                       0.640
   Width  (m)                       0.640
   Height (m)                       0.960
   Initial Time Step (s)            0.023

 Grid Dimensions, Mesh     6

   Cells in the X Direction            32
   Cells in the Y Direction            32
   Cells in the Z Direction            48
   Number of Grid Cells             49152


 Physical Dimensions, Mesh     6

   Length (m)                       0.640
   Width  (m)                       0.640
   Height (m)                       0.960
   Initial Time Step (s)            0.023

 Grid Dimensions, Mesh     7

   Cells in the X Direction            32
   Cells in the Y Direction            32
   Cells in the Z Direction            48
   Number of Grid Cells             49152


 Physical Dimensions, Mesh     7

   Length (m)                       0.640
   Width  (m)                       0.640
   Height (m)                       0.960
   Initial Time Step (s)            0.023

 Grid Dimensions, Mesh     8

   Cells in the X Direction            32
   Cells in the Y Direction            32
   Cells in the Z Direction            48
   Number of Grid Cells             49152


 Physical Dimensions, Mesh     8

   Length (m)                       0.640
   Width  (m)                       0.640
   Height (m)                       0.960
   Initial Time Step (s)            0.023

 Total Number of Grid Cells        393216


 Maximum Cell Aspect Ratio          1.000
 CFL Velocity Norm                      1


 Miscellaneous Parameters

   Simulation Start Time (s)          0.0
   Simulation End Time (s)           60.0
   Background Pressure (Pa)     101325.00
   Ambient Temperature (C)          16.00

   3D Cartesian
   LES Calculation
   Eddy Viscosity Model:  Deardorff (C_DEARDORFF = 0.10)
   Surface INERT Eddy Viscosity Model:  WALE (C_WALE = 0.60)
   Surface PAN Eddy Viscosity Model:  WALE (C_WALE = 0.60)
   Surface POOL Eddy Viscosity Model:  WALE (C_WALE = 0.60)
   Turbulent Prandtl Number:         0.50
   Turbulent Schmidt Number:         0.50


 Pressure solver information

   Solver:                          ULMAT
   Velocity tolerance (m/s):    1.000E-02
   Press eqn res tol (1/s^2):   5.000E+04
   Max pressure iterations:            10


 Background Stratification

      Z (m)     P_0 (Pa)    TMP_0 (C)
   ------------------------------------
        0.69    101316.78     16.00
        0.67    101317.02     16.00
        0.65    101317.26     16.00
        0.63    101317.49     16.00
        0.61    101317.73     16.00
        0.59    101317.97     16.00
        0.57    101318.21     16.00
        0.55    101318.45     16.00
        0.53    101318.69     16.00
        0.51    101318.92     16.00
        0.49    101319.16     16.00
        0.47    101319.40     16.00
        0.45    101319.64     16.00
        0.43    101319.88     16.00
        0.41    101320.11     16.00
        0.39    101320.35     16.00
        0.37    101320.59     16.00
        0.35    101320.83     16.00
        0.33    101321.07     16.00
        0.31    101321.31     16.00
        0.29    101321.54     16.00
        0.27    101321.78     16.00
        0.25    101322.02     16.00
        0.23    101322.26     16.00
        0.21    101322.50     16.00
        0.19    101322.73     16.00
        0.17    101322.97     16.00
        0.15    101323.21     16.00
        0.13    101323.45     16.00
        0.11    101323.68     16.00
        0.09    101323.93     16.00
        0.07    101324.16     16.00
        0.05    101324.40     16.00
        0.03    101324.64     16.00
        0.01    101324.88     16.00
       -0.01    101325.11     16.00
       -0.03    101325.35     16.00
       -0.05    101325.59     16.00
       -0.07    101325.83     16.00
       -0.09    101326.07     16.00
       -0.11    101326.30     16.00
       -0.13    101326.54     16.00
       -0.15    101326.78     16.00
       -0.17    101327.02     16.00
       -0.19    101327.26     16.00
       -0.21    101327.50     16.00
       -0.23    101327.73     16.00
       -0.25    101327.97     16.00


 Mass Fraction Transformation Matrix to Convert Species Mixtures (Columns) to Primitive Species (Rows)

                         AIR       ACETONE   INTERMED  PRODUCTS
   NITROGEN              0.764811  0.000000  0.592859  0.690865
   OXYGEN                0.231707  0.000000  0.000000  0.000000
   CARBON DIOXIDE        0.000593  0.000000  0.000460  0.214911
   WATER VAPOR           0.002889  0.000000  0.106848  0.092580
   CARBON MONOXIDE       0.000000  0.000000  0.260232  0.000290
   SOOT                  0.000000  0.000000  0.027897  0.001354
   HYDROGEN              0.000000  0.000000  0.011705  0.000000
   HYDROGEN CYANIDE      0.000000  0.000000  0.000000  0.000000
   ACETONE               0.000000  1.000000  0.000000  0.000000


 Primitive Species Information

   NITROGEN
   Gas Species
   Molecular Weight (g/mol)                28.01340
   Ambient Density (kg/m^3)                1.181
           Enthalpy of Formation (J/kg)  0.000E+00

   OXYGEN
   Gas Species
   Molecular Weight (g/mol)                31.99880
   Ambient Density (kg/m^3)                1.349
           Enthalpy of Formation (J/kg)  0.000E+00

   CARBON DIOXIDE
   Gas Species
   Molecular Weight (g/mol)                44.00950
   Ambient Density (kg/m^3)                1.855
           Enthalpy of Formation (J/kg) -8.941E+06

   WATER VAPOR
   Gas Species
   Molecular Weight (g/mol)                18.01528
   Ambient Density (kg/m^3)                0.759
           Enthalpy of Formation (J/kg) -1.342E+07

   CARBON MONOXIDE
   Gas Species
   Molecular Weight (g/mol)                28.01010
   Ambient Density (kg/m^3)                1.181
           Enthalpy of Formation (J/kg) -3.946E+06

   SOOT
   Gas Species
   Molecular Weight (g/mol)                12.01070
   Ambient Density (kg/m^3)                0.506
           Enthalpy of Formation (J/kg)  0.000E+00

   HYDROGEN
   Gas Species
   Molecular Weight (g/mol)                 2.01588
   Ambient Density (kg/m^3)                0.085
           Enthalpy of Formation (J/kg)  0.000E+00

   HYDROGEN CYANIDE
   Gas Species
   Molecular Weight (g/mol)                27.02534
   Ambient Density (kg/m^3)                1.139
           Enthalpy of Formation (J/kg)  4.924E+06

   ACETONE
   Gas Species
   Molecular Weight (g/mol)                58.07914
   Ambient Density (kg/m^3)                2.448
           Enthalpy of Formation (J/kg) -3.739E+06


 Tracked (Lumped) Species Information

   AIR
   Molecular Weight (g/mol)            28.80470
   Ambient Density (kg/m^3)            1.214
   Initial Mass Fraction               1.000
   Enthalpy of Formation (J/kg)     -4.408E+04

   Sub Species                    Mass Fraction     Mole Fraction
   NITROGEN                       7.648113E-01      7.864151E-01
   OXYGEN                         2.317067E-01      2.085779E-01
   CARBON DIOXIDE                 5.932813E-04      3.883091E-04
   WATER VAPOR                    2.888634E-03      4.618647E-03
 
     Viscosity (kg/m/s) Ambient,  289 K:  1.780E-05
                                  500 K:  2.616E-05
                                 1000 K:  4.127E-05
                                 1500 K:  5.372E-05
                                 2000 K:  6.475E-05
   Therm. Cond. (W/m/K) Ambient,  289 K:  2.532E-02
                                  500 K:  3.815E-02
                                 1000 K:  6.680E-02
                                 1500 K:  9.232E-02
                                 2000 K:  1.150E-01
        Enthalpy (J/kg) Ambient,  289 K: -5.320E+04
                                  500 K:  1.626E+05
                                 1000 K:  7.109E+05
                                 1500 K:  1.307E+06
                                 2000 K:  1.930E+06
    Spec. Heat (J/kg/K) Ambient,  289 K:  1.013E+03
                                  500 K:  1.039E+03
                                 1000 K:  1.153E+03
                                 1500 K:  1.224E+03
                                 2000 K:  1.265E+03
   Diff. Coeff. (m^2/s) Ambient,  289 K:  1.943E-05
                                  500 K:  4.957E-05
                                 1000 K:  1.578E-04
                                 1500 K:  3.091E-04
                                 2000 K:  4.977E-04
 Gibbs Energy Amb. (kJ/mol),  289 K: -5.722E+01
                                  500 K: -9.997E+01
                                 1000 K: -2.109E+02
                                 1500 K: -3.305E+02
                                 2000 K: -4.560E+02

   ACETONE
   Molecular Weight (g/mol)            58.07914
   Ambient Density (kg/m^3)            2.448
   Initial Mass Fraction               0.000
   Enthalpy of Formation (J/kg)     -3.739E+06

   Sub Species                    Mass Fraction     Mole Fraction
   ACETONE                        1.000000E+00      1.000000E+00
 
     Viscosity (kg/m/s) Ambient,  289 K:  7.268E-06
                                  500 K:  1.272E-05
                                 1000 K:  2.481E-05
                                 1500 K:  3.471E-05
                                 2000 K:  4.322E-05
   Therm. Cond. (W/m/K) Ambient,  289 K:  1.046E-02
                                  500 K:  2.712E-02
                                 1000 K:  7.953E-02
                                 1500 K:  1.295E-01
                                 2000 K:  1.726E-01
        Enthalpy (J/kg) Ambient,  289 K: -3.750E+06
                                  500 K: -3.422E+06
                                 1000 K: -2.233E+06
                                 1500 K: -7.108E+05
                                 2000 K:  9.753E+05
    Spec. Heat (J/kg/K) Ambient,  289 K:  1.252E+03
                                  500 K:  1.855E+03
                                 1000 K:  2.789E+03
                                 1500 K:  3.245E+03
                                 2000 K:  3.475E+03
   Diff. Coeff. (m^2/s) Ambient,  289 K:  9.898E-06
                                  500 K:  2.742E-05
                                 1000 K:  9.204E-05
                                 1500 K:  1.829E-04
                                 2000 K:  2.959E-04
 Gibbs Energy Amb. (kJ/mol),  289 K: -3.026E+02
                                  500 K: -3.698E+02
                                 1000 K: -5.653E+02
                                 1500 K: -8.017E+02
                                 2000 K: -1.070E+03

   INTERMEDIATE PRODUCTS
   Molecular Weight (g/mol)            22.45943
   Ambient Density (kg/m^3)            0.947
   Initial Mass Fraction               0.000
   Enthalpy of Formation (J/kg)     -2.465E+06

   Sub Species                    Mass Fraction     Mole Fraction
   NITROGEN                       5.928589E-01      4.753180E-01
   CARBON DIOXIDE                 4.598939E-04      2.346983E-04
   WATER VAPOR                    1.068475E-01      1.332055E-01
   CARBON MONOXIDE                2.602315E-01      2.086623E-01
   SOOT                           2.789675E-02      5.216557E-02
   HYDROGEN                       1.170550E-02      1.304139E-01
   HYDROGEN CYANIDE               0.000000E+00      0.000000E+00
 
     Viscosity (kg/m/s) Ambient,  289 K:  1.578E-05
                                  500 K:  2.343E-05
                                 1000 K:  3.788E-05
                                 1500 K:  4.995E-05
                                 2000 K:  6.063E-05
   Therm. Cond. (W/m/K) Ambient,  289 K:  3.000E-02
                                  500 K:  4.578E-02
                                 1000 K:  8.188E-02
                                 1500 K:  1.165E-01
                                 2000 K:  1.482E-01
        Enthalpy (J/kg) Ambient,  289 K: -2.477E+06
                                  500 K: -2.204E+06
                                 1000 K: -1.508E+06
                                 1500 K: -7.404E+05
                                 2000 K:  7.396E+04
    Spec. Heat (J/kg/K) Ambient,  289 K:  1.272E+03
                                  500 K:  1.316E+03
                                 1000 K:  1.471E+03
                                 1500 K:  1.589E+03
                                 2000 K:  1.663E+03
   Diff. Coeff. (m^2/s) Ambient,  289 K:  2.654E-05
                                  500 K:  6.829E-05
                                 1000 K:  2.189E-04
                                 1500 K:  4.296E-04
                                 2000 K:  6.924E-04
 Gibbs Energy Amb. (kJ/mol),  289 K: -1.088E+02
                                  500 K: -1.499E+02
                                 1000 K: -2.570E+02
                                 1500 K: -3.727E+02
                                 2000 K: -4.944E+02

   PRODUCTS
   Molecular Weight (g/mol)            28.72962
   Ambient Density (kg/m^3)            1.211
   Initial Mass Fraction               0.000
   Enthalpy of Formation (J/kg)     -3.166E+06

   Sub Species                    Mass Fraction     Mole Fraction
   NITROGEN                       6.908652E-01      7.085286E-01
   CARBON DIOXIDE                 2.149107E-01      1.402947E-01
   WATER VAPOR                    9.258046E-02      1.476414E-01
   CARBON MONOXIDE                2.900563E-04      2.975072E-04
   SOOT                           1.353596E-03      3.237804E-03
   HYDROGEN CYANIDE               0.000000E+00      0.000000E+00
 
     Viscosity (kg/m/s) Ambient,  289 K:  1.596E-05
                                  500 K:  2.394E-05
                                 1000 K:  3.897E-05
                                 1500 K:  5.142E-05
                                 2000 K:  6.238E-05
   Therm. Cond. (W/m/K) Ambient,  289 K:  2.294E-02
                                  500 K:  3.603E-02
                                 1000 K:  6.685E-02
                                 1500 K:  9.566E-02
                                 2000 K:  1.214E-01
        Enthalpy (J/kg) Ambient,  289 K: -3.175E+06
                                  500 K: -2.943E+06
                                 1000 K: -2.338E+06
                                 1500 K: -1.666E+06
                                 2000 K: -9.546E+05
    Spec. Heat (J/kg/K) Ambient,  289 K:  1.071E+03
                                  500 K:  1.130E+03
                                 1000 K:  1.287E+03
                                 1500 K:  1.391E+03
                                 2000 K:  1.451E+03
   Diff. Coeff. (m^2/s) Ambient,  289 K:  1.892E-05
                                  500 K:  4.916E-05
                                 1000 K:  1.586E-04
                                 1500 K:  3.119E-04
                                 2000 K:  5.030E-04
 Gibbs Energy Amb. (kJ/mol),  289 K: -1.636E+02
                                  500 K: -2.067E+02
                                 1000 K: -3.197E+02
                                 1500 K: -4.425E+02
                                 2000 K: -5.723E+02


 Gas Phase Reaction Information

   Reaction 1

      Priority:                                                               1

      Fuel                                           Heat of Combustion (kJ/kg)
      ACETONE                                                         7074.3794
      2-step reaction,  Total Heat of Combustion                     28589.5773

      Primitive Species Stoich. Coeff.
      Species ID                                                          Molar
      OXYGEN                                                          -1.450000
      WATER VAPOR                                                      1.500000
      CARBON MONOXIDE                                                  2.400000
      SOOT                                                             0.600000
      HYDROGEN                                                         1.500000
      ACETONE                                                         -1.000000

      Tracked (Lumped) Species Stoich. Coeff.
      Species ID                                             Molar         Mass
      AIR                                                -6.951838    -3.447806
      ACETONE                                            -1.000000    -1.000000
      INTERMEDIATE PRODUCTS                              11.501838     4.447806

      Reaction Kinetics

      Fast chemistry

      ODE Solver:  EXPLICIT EULER

      Extinction Model:  EXTINCTION 2
      Auto-Ignition Temperature (C):            -273.1
      Critical Flame Temperature (C):           1457.0

      Prescribed Radiative Fraction:             0.310

   Reaction 2

      Priority:                                                               2

      Fuel                                           Heat of Combustion (kJ/kg)
      INTERMEDIATE PRODUCTS                                           4837.2607

      Primitive Species Stoich. Coeff.
      Species ID                                                          Molar
      OXYGEN                                                          -0.215547
      CARBON DIOXIDE                                                   0.254401
      WATER VAPOR                                                      0.130414
      CARBON MONOXIDE                                                 -0.208121
      SOOT                                                            -0.046280
      HYDROGEN                                                        -0.130414

      Tracked (Lumped) Species Stoich. Coeff.
      Species ID                                             Molar         Mass
      AIR                                                -1.033414    -1.325376
      INTERMEDIATE PRODUCTS                              -1.000000    -1.000000
      PRODUCTS                                            1.817867     2.325376

      Reaction Kinetics

      Fast chemistry

      ODE Solver:  EXPLICIT EULER

      Prescribed Radiative Fraction:             0.310


 Material Information

   1 STEEL
     Emissivity:                                  0.800
     Density (kg/m3):                            7800.0
     Specific Heat (kJ/kg/K) Ambient,  289 K:  4.650E-01
                                       350 K:  4.650E-01
                                       500 K:  4.650E-01
                                       800 K:  4.650E-01
     Therm. Cond. (W/m/K) Ambient,     289 K:  5.400E+01
                                       350 K:  5.400E+01
                                       500 K:  5.400E+01
                                       800 K:  5.400E+01
     Enthalpy (kJ/kg) Ambient,         289 K:  1.344E+02
                                       350 K:  1.628E+02
                                       500 K:  2.325E+02
                                       800 K:  3.720E+02

   2 ACETONE LIQUID
     Emissivity:                                  1.000
     Density (kg/m3):                             791.0
     Specific Heat (kJ/kg/K) Ambient,  289 K:  2.130E+00
                                       350 K:  2.130E+00
                                       500 K:  2.130E+00
                                       800 K:  2.130E+00
     Therm. Cond. (W/m/K) Ambient,     289 K:  2.000E-01
                                       350 K:  2.000E-01
                                       500 K:  2.000E-01
                                       800 K:  2.000E-01
     Enthalpy (kJ/kg) Ambient,         289 K: -4.285E+03
                                       350 K: -4.155E+03
                                       500 K: -3.835E+03
                                       800 K: -3.196E+03
     Absorption coefficient (1/m)   100.00
     Liquid evaporation reaction
        Gaseous Yields:
        AIR                                                         :     0.00
        ACETONE                                                     :     1.00
        INTERMEDIATE PRODUCTS                                       :     0.00
        PRODUCTS                                                    :     0.00
        Boiling temperature (C):    56.15
        H_R (kJ/kg)            :  5.341E+02


 Surface Conditions

   0 INERT (DEFAULT)

   1 PAN
     Material List
          1  STEEL
     Layer  1
        Thickness   (m):  0.00300
        Density (kg/m3):  7800.00
        STEEL, Mass fraction:    1.00
     Reaction products considered from the first  0.50 layers.
     Total surface density    23.400 kg/m2
     Solid Phase Node, Layer, Coordinates(m):
                    0      1       0.0000000
                    1      1       0.0030000
     Exposed Backing

   2 POOL
     Material List
          1  ACETONE LIQUID
     Layer  1
        Thickness   (m):  0.15000
        Density (kg/m3):   791.00
        ACETONE LIQUID, Mass fraction:    1.00
     Reaction products considered from the first  0.50 layers.
     Total surface density   118.650 kg/m2
     Solid Phase Node, Layer, Coordinates(m):
                    0      1       0.0000000
                    1      1       0.0002941
                    2      1       0.0008824
                    3      1       0.0020588
                    4      1       0.0044118
                    5      1       0.0091176
                    6      1       0.0185294
                    7      1       0.0373529
                    8      1       0.0750000
                    9      1       0.1126471
                   10      1       0.1314706
                   11      1       0.1408824
                   12      1       0.1455882
                   13      1       0.1479412
                   14      1       0.1491176
                   15      1       0.1497059
                   16      1       0.1500000
     Exposed Backing

   3 OPEN
     Passive Vent to Atmosphere

   4 MIRROR
     Symmetry Plane

   5 INTERPOLATED

   6 PERIODIC

   7 HVAC

   8 MASSLESS TRACER

   9 DROPLET

  10 MASSLESS TARGET

  11 PERIODIC FLOW ONLY


 Lagrangian Particle Classes


 PROPerty Information

   1 TC
     Smokeview ID                sensor


 Cut-off Density and Temperature

    Minimum Temperature:  -259.1 C
    Maximum Temperature:  2726.8 C
    Minimum Density:  1.214E-01 kg/m3
    Maximum Density:  1.011E+02 kg/m3


 Device Information

   1 ID: MLRPUA
     QUANTITY: BURNING RATE
     Coordinates (X,Y,Z):   -2.000000E-04   -2.000000E-04    4.500000E-02
     SPATIAL STATISTIC: MEAN
     TEMPORAL STATISTIC: TIME AVERAGE
   2 ID: HEAT_FLUX
     QUANTITY: TOTAL HEAT FLUX
     Coordinates (X,Y,Z):   -2.000000E-04   -2.000000E-04    4.500000E-02
     SPATIAL STATISTIC: MEAN
     TEMPORAL STATISTIC: TIME AVERAGE
   3 ID: MLRPUA_ideal
     QUANTITY: TOTAL HEAT FLUX
     Coordinates (X,Y,Z):   -2.000000E-04   -2.000000E-04    4.500000E-02
     SPATIAL STATISTIC: MEAN
     TEMPORAL STATISTIC: TIME AVERAGE
   4 ID: T_SURF_MEAN
     QUANTITY: WALL TEMPERATURE
     Coordinates (X,Y,Z):   -2.000000E-04   -2.000000E-04    4.500000E-02
     SPATIAL STATISTIC: MEAN
     TEMPORAL STATISTIC: TIME AVERAGE
   5 ID: T_SURF_MAX
     QUANTITY: WALL TEMPERATURE
     Coordinates (X,Y,Z):   -2.000000E-04   -2.000000E-04    4.500000E-02
     SPATIAL STATISTIC: MAX
     TEMPORAL STATISTIC: TIME AVERAGE
   6 ID: TC_CL
     QUANTITY: THERMOCOUPLE
     Coordinates (X,Y,Z):    1.000000E-03    1.000000E-03    1.000000E-02
     TEMPORAL STATISTIC: RUNNING AVERAGE
  Property ID: TC
   7 ID: TC_CL
     QUANTITY: THERMOCOUPLE
     Coordinates (X,Y,Z):    1.000000E-03    1.000000E-03    3.000000E-02
     TEMPORAL STATISTIC: RUNNING AVERAGE
  Property ID: TC
   8 ID: TC_CL
     QUANTITY: THERMOCOUPLE
     Coordinates (X,Y,Z):    1.000000E-03    1.000000E-03    5.000000E-02
     TEMPORAL STATISTIC: RUNNING AVERAGE
  Property ID: TC
   9 ID: TC_CL
     QUANTITY: THERMOCOUPLE
     Coordinates (X,Y,Z):    1.000000E-03    1.000000E-03    7.000000E-02
     TEMPORAL STATISTIC: RUNNING AVERAGE
  Property ID: TC
  10 ID: TC_CL
     QUANTITY: THERMOCOUPLE
     Coordinates (X,Y,Z):    1.000000E-03    1.000000E-03    9.000000E-02
     TEMPORAL STATISTIC: RUNNING AVERAGE
  Property ID: TC
  11 ID: TC_CL
     QUANTITY: THERMOCOUPLE
     Coordinates (X,Y,Z):    1.000000E-03    1.000000E-03    1.100000E-01
     TEMPORAL STATISTIC: RUNNING AVERAGE
  Property ID: TC
  12 ID: TC_CL
     QUANTITY: THERMOCOUPLE
     Coordinates (X,Y,Z):    1.000000E-03    1.000000E-03    1.300000E-01
     TEMPORAL STATISTIC: RUNNING AVERAGE
  Property ID: TC
  13 ID: TC_CL
     QUANTITY: THERMOCOUPLE
     Coordinates (X,Y,Z):    1.000000E-03    1.000000E-03    1.500000E-01
     TEMPORAL STATISTIC: RUNNING AVERAGE
  Property ID: TC
  14 ID: TC_CL
     QUANTITY: THERMOCOUPLE
     Coordinates (X,Y,Z):    1.000000E-03    1.000000E-03    1.700000E-01
     TEMPORAL STATISTIC: RUNNING AVERAGE
  Property ID: TC
  15 ID: TC_CL
     QUANTITY: THERMOCOUPLE
     Coordinates (X,Y,Z):    1.000000E-03    1.000000E-03    1.900000E-01
     TEMPORAL STATISTIC: RUNNING AVERAGE
  Property ID: TC
  16 ID: TC_CL
     QUANTITY: THERMOCOUPLE
     Coordinates (X,Y,Z):    1.000000E-03    1.000000E-03    2.100000E-01
     TEMPORAL STATISTIC: RUNNING AVERAGE
  Property ID: TC
  17 ID: TC_CL
     QUANTITY: THERMOCOUPLE
     Coordinates (X,Y,Z):    1.000000E-03    1.000000E-03    2.300000E-01
     TEMPORAL STATISTIC: RUNNING AVERAGE
  Property ID: TC
  18 ID: TC_CL
     QUANTITY: THERMOCOUPLE
     Coordinates (X,Y,Z):    1.000000E-03    1.000000E-03    2.500000E-01
     TEMPORAL STATISTIC: RUNNING AVERAGE
  Property ID: TC
  19 ID: TC_CL
     QUANTITY: THERMOCOUPLE
     Coordinates (X,Y,Z):    1.000000E-03    1.000000E-03    2.700000E-01
     TEMPORAL STATISTIC: RUNNING AVERAGE
  Property ID: TC
  20 ID: TC_CL
     QUANTITY: THERMOCOUPLE
     Coordinates (X,Y,Z):    1.000000E-03    1.000000E-03    2.900000E-01
     TEMPORAL STATISTIC: RUNNING AVERAGE
  Property ID: TC
  21 ID: TC_CL
     QUANTITY: THERMOCOUPLE
     Coordinates (X,Y,Z):    1.000000E-03    1.000000E-03    3.100000E-01
     TEMPORAL STATISTIC: RUNNING AVERAGE
  Property ID: TC
  22 ID: TC_CL
     QUANTITY: THERMOCOUPLE
     Coordinates (X,Y,Z):    1.000000E-03    1.000000E-03    3.300000E-01
     TEMPORAL STATISTIC: RUNNING AVERAGE
  Property ID: TC
  23 ID: TC_CL
     QUANTITY: THERMOCOUPLE
     Coordinates (X,Y,Z):    1.000000E-03    1.000000E-03    3.500000E-01
     TEMPORAL STATISTIC: RUNNING AVERAGE
  Property ID: TC
  24 ID: TC_CL
     QUANTITY: THERMOCOUPLE
     Coordinates (X,Y,Z):    1.000000E-03    1.000000E-03    3.700000E-01
     TEMPORAL STATISTIC: RUNNING AVERAGE
  Property ID: TC
  25 ID: TC_CL
     QUANTITY: THERMOCOUPLE
     Coordinates (X,Y,Z):    1.000000E-03    1.000000E-03    3.900000E-01
     TEMPORAL STATISTIC: RUNNING AVERAGE
  Property ID: TC
  26 ID: TC_CL
     QUANTITY: THERMOCOUPLE
     Coordinates (X,Y,Z):    1.000000E-03    1.000000E-03    4.100000E-01
     TEMPORAL STATISTIC: RUNNING AVERAGE
  Property ID: TC
  27 ID: TC_CL
     QUANTITY: THERMOCOUPLE
     Coordinates (X,Y,Z):    1.000000E-03    1.000000E-03    4.300000E-01
     TEMPORAL STATISTIC: RUNNING AVERAGE
  Property ID: TC
  28 ID: TC_CL
     QUANTITY: THERMOCOUPLE
     Coordinates (X,Y,Z):    1.000000E-03    1.000000E-03    4.500000E-01
     TEMPORAL STATISTIC: RUNNING AVERAGE
  Property ID: TC
  29 ID: TC_CL
     QUANTITY: THERMOCOUPLE
     Coordinates (X,Y,Z):    1.000000E-03    1.000000E-03    4.700000E-01
     TEMPORAL STATISTIC: RUNNING AVERAGE
  Property ID: TC
  30 ID: TC_CL
     QUANTITY: THERMOCOUPLE
     Coordinates (X,Y,Z):    1.000000E-03    1.000000E-03    4.900000E-01
     TEMPORAL STATISTIC: RUNNING AVERAGE
  Property ID: TC
  31 ID: TC_CL
     QUANTITY: THERMOCOUPLE
     Coordinates (X,Y,Z):    1.000000E-03    1.000000E-03    5.100000E-01
     TEMPORAL STATISTIC: RUNNING AVERAGE
  Property ID: TC
  32 ID: TC_CL
     QUANTITY: THERMOCOUPLE
     Coordinates (X,Y,Z):    1.000000E-03    1.000000E-03    5.300000E-01
     TEMPORAL STATISTIC: RUNNING AVERAGE
  Property ID: TC
  33 ID: TC_CL
     QUANTITY: THERMOCOUPLE
     Coordinates (X,Y,Z):    1.000000E-03    1.000000E-03    5.500000E-01
     TEMPORAL STATISTIC: RUNNING AVERAGE
  Property ID: TC
  34 ID: TC_CL
     QUANTITY: THERMOCOUPLE
     Coordinates (X,Y,Z):    1.000000E-03    1.000000E-03    5.700000E-01
     TEMPORAL STATISTIC: RUNNING AVERAGE
  Property ID: TC
  35 ID: TC_CL
     QUANTITY: THERMOCOUPLE
     Coordinates (X,Y,Z):    1.000000E-03    1.000000E-03    5.900000E-01
     TEMPORAL STATISTIC: RUNNING AVERAGE
  Property ID: TC
  36 ID: TC_CL
     QUANTITY: THERMOCOUPLE
     Coordinates (X,Y,Z):    1.000000E-03    1.000000E-03    6.100000E-01
     TEMPORAL STATISTIC: RUNNING AVERAGE
  Property ID: TC
  37 ID: TC_CL
     QUANTITY: THERMOCOUPLE
     Coordinates (X,Y,Z):    1.000000E-03    1.000000E-03    6.300000E-01
     TEMPORAL STATISTIC: RUNNING AVERAGE
  Property ID: TC
  38 ID: TC_CL
     QUANTITY: THERMOCOUPLE
     Coordinates (X,Y,Z):    1.000000E-03    1.000000E-03    6.500000E-01
     TEMPORAL STATISTIC: RUNNING AVERAGE
  Property ID: TC
  39 ID: TC_CL
     QUANTITY: THERMOCOUPLE
     Coordinates (X,Y,Z):    1.000000E-03    1.000000E-03    6.700000E-01
     TEMPORAL STATISTIC: RUNNING AVERAGE
  Property ID: TC
  40 ID: TC_CL
     QUANTITY: THERMOCOUPLE
     Coordinates (X,Y,Z):    1.000000E-03    1.000000E-03    6.900000E-01
     TEMPORAL STATISTIC: RUNNING AVERAGE
  Property ID: TC
  41 ID: TC_CL
     QUANTITY: THERMOCOUPLE
     Coordinates (X,Y,Z):    1.000000E-03    1.000000E-03    7.100000E-01
     TEMPORAL STATISTIC: RUNNING AVERAGE
  Property ID: TC
  42 ID: TC_CL
     QUANTITY: THERMOCOUPLE
     Coordinates (X,Y,Z):    1.000000E-03    1.000000E-03    7.300000E-01
     TEMPORAL STATISTIC: RUNNING AVERAGE
  Property ID: TC
  43 ID: TC_CL
     QUANTITY: THERMOCOUPLE
     Coordinates (X,Y,Z):    1.000000E-03    1.000000E-03    7.500000E-01
     TEMPORAL STATISTIC: RUNNING AVERAGE
  Property ID: TC
  44 ID: TC_CL
     QUANTITY: THERMOCOUPLE
     Coordinates (X,Y,Z):    1.000000E-03    1.000000E-03    7.700000E-01
     TEMPORAL STATISTIC: RUNNING AVERAGE
  Property ID: TC
  45 ID: TC_CL
     QUANTITY: THERMOCOUPLE
     Coordinates (X,Y,Z):    1.000000E-03    1.000000E-03    7.900000E-01
     TEMPORAL STATISTIC: RUNNING AVERAGE
  Property ID: TC
  46 ID: TC_CL
     QUANTITY: THERMOCOUPLE
     Coordinates (X,Y,Z):    1.000000E-03    1.000000E-03    8.100000E-01
     TEMPORAL STATISTIC: RUNNING AVERAGE
  Property ID: TC
  47 ID: TC_CL
     QUANTITY: THERMOCOUPLE
     Coordinates (X,Y,Z):    1.000000E-03    1.000000E-03    8.300000E-01
     TEMPORAL STATISTIC: RUNNING AVERAGE
  Property ID: TC
  48 ID: TC_CL
     QUANTITY: THERMOCOUPLE
     Coordinates (X,Y,Z):    1.000000E-03    1.000000E-03    8.500000E-01
     TEMPORAL STATISTIC: RUNNING AVERAGE
  Property ID: TC
  49 ID: TC_CL
     QUANTITY: THERMOCOUPLE
     Coordinates (X,Y,Z):    1.000000E-03    1.000000E-03    8.700000E-01
     TEMPORAL STATISTIC: RUNNING AVERAGE
  Property ID: TC
  50 ID: TC_CL
     QUANTITY: THERMOCOUPLE
     Coordinates (X,Y,Z):    1.000000E-03    1.000000E-03    8.900000E-01
     TEMPORAL STATISTIC: RUNNING AVERAGE
  Property ID: TC
  51 ID: TC_CL
     QUANTITY: THERMOCOUPLE
     Coordinates (X,Y,Z):    1.000000E-03    1.000000E-03    9.100000E-01
     TEMPORAL STATISTIC: RUNNING AVERAGE
  Property ID: TC
  52 ID: TC_CL
     QUANTITY: THERMOCOUPLE
     Coordinates (X,Y,Z):    1.000000E-03    1.000000E-03    9.300000E-01
     TEMPORAL STATISTIC: RUNNING AVERAGE
  Property ID: TC
  53 ID: TC_CL
     QUANTITY: THERMOCOUPLE
     Coordinates (X,Y,Z):    1.000000E-03    1.000000E-03    9.500000E-01
     TEMPORAL STATISTIC: RUNNING AVERAGE
  Property ID: TC
  54 ID: TC_CL
     QUANTITY: THERMOCOUPLE
     Coordinates (X,Y,Z):    1.000000E-03    1.000000E-03    9.700000E-01
     TEMPORAL STATISTIC: RUNNING AVERAGE
  Property ID: TC
  55 ID: TC_CL
     QUANTITY: THERMOCOUPLE
     Coordinates (X,Y,Z):    1.000000E-03    1.000000E-03    9.900000E-01
     TEMPORAL STATISTIC: RUNNING AVERAGE
  Property ID: TC
  56 ID: TG_CL
     QUANTITY: TEMPERATURE
     Coordinates (X,Y,Z):    1.000000E-03    1.000000E-03    1.000000E-02
     TEMPORAL STATISTIC: RUNNING AVERAGE
  57 ID: TG_CL
     QUANTITY: TEMPERATURE
     Coordinates (X,Y,Z):    1.000000E-03    1.000000E-03    3.000000E-02
     TEMPORAL STATISTIC: RUNNING AVERAGE
  58 ID: TG_CL
     QUANTITY: TEMPERATURE
     Coordinates (X,Y,Z):    1.000000E-03    1.000000E-03    5.000000E-02
     TEMPORAL STATISTIC: RUNNING AVERAGE
  59 ID: TG_CL
     QUANTITY: TEMPERATURE
     Coordinates (X,Y,Z):    1.000000E-03    1.000000E-03    7.000000E-02
     TEMPORAL STATISTIC: RUNNING AVERAGE
  60 ID: TG_CL
     QUANTITY: TEMPERATURE
     Coordinates (X,Y,Z):    1.000000E-03    1.000000E-03    9.000000E-02
     TEMPORAL STATISTIC: RUNNING AVERAGE
  61 ID: TG_CL
     QUANTITY: TEMPERATURE
     Coordinates (X,Y,Z):    1.000000E-03    1.000000E-03    1.100000E-01
     TEMPORAL STATISTIC: RUNNING AVERAGE
  62 ID: TG_CL
     QUANTITY: TEMPERATURE
     Coordinates (X,Y,Z):    1.000000E-03    1.000000E-03    1.300000E-01
     TEMPORAL STATISTIC: RUNNING AVERAGE
  63 ID: TG_CL
     QUANTITY: TEMPERATURE
     Coordinates (X,Y,Z):    1.000000E-03    1.000000E-03    1.500000E-01
     TEMPORAL STATISTIC: RUNNING AVERAGE
  64 ID: TG_CL
     QUANTITY: TEMPERATURE
     Coordinates (X,Y,Z):    1.000000E-03    1.000000E-03    1.700000E-01
     TEMPORAL STATISTIC: RUNNING AVERAGE
  65 ID: TG_CL
     QUANTITY: TEMPERATURE
     Coordinates (X,Y,Z):    1.000000E-03    1.000000E-03    1.900000E-01
     TEMPORAL STATISTIC: RUNNING AVERAGE
  66 ID: TG_CL
     QUANTITY: TEMPERATURE
     Coordinates (X,Y,Z):    1.000000E-03    1.000000E-03    2.100000E-01
     TEMPORAL STATISTIC: RUNNING AVERAGE
  67 ID: TG_CL
     QUANTITY: TEMPERATURE
     Coordinates (X,Y,Z):    1.000000E-03    1.000000E-03    2.300000E-01
     TEMPORAL STATISTIC: RUNNING AVERAGE
  68 ID: TG_CL
     QUANTITY: TEMPERATURE
     Coordinates (X,Y,Z):    1.000000E-03    1.000000E-03    2.500000E-01
     TEMPORAL STATISTIC: RUNNING AVERAGE
  69 ID: TG_CL
     QUANTITY: TEMPERATURE
     Coordinates (X,Y,Z):    1.000000E-03    1.000000E-03    2.700000E-01
     TEMPORAL STATISTIC: RUNNING AVERAGE
  70 ID: TG_CL
     QUANTITY: TEMPERATURE
     Coordinates (X,Y,Z):    1.000000E-03    1.000000E-03    2.900000E-01
     TEMPORAL STATISTIC: RUNNING AVERAGE
  71 ID: TG_CL
     QUANTITY: TEMPERATURE
     Coordinates (X,Y,Z):    1.000000E-03    1.000000E-03    3.100000E-01
     TEMPORAL STATISTIC: RUNNING AVERAGE
  72 ID: TG_CL
     QUANTITY: TEMPERATURE
     Coordinates (X,Y,Z):    1.000000E-03    1.000000E-03    3.300000E-01
     TEMPORAL STATISTIC: RUNNING AVERAGE
  73 ID: TG_CL
     QUANTITY: TEMPERATURE
     Coordinates (X,Y,Z):    1.000000E-03    1.000000E-03    3.500000E-01
     TEMPORAL STATISTIC: RUNNING AVERAGE
  74 ID: TG_CL
     QUANTITY: TEMPERATURE
     Coordinates (X,Y,Z):    1.000000E-03    1.000000E-03    3.700000E-01
     TEMPORAL STATISTIC: RUNNING AVERAGE
  75 ID: TG_CL
     QUANTITY: TEMPERATURE
     Coordinates (X,Y,Z):    1.000000E-03    1.000000E-03    3.900000E-01
     TEMPORAL STATISTIC: RUNNING AVERAGE
  76 ID: TG_CL
     QUANTITY: TEMPERATURE
     Coordinates (X,Y,Z):    1.000000E-03    1.000000E-03    4.100000E-01
     TEMPORAL STATISTIC: RUNNING AVERAGE
  77 ID: TG_CL
     QUANTITY: TEMPERATURE
     Coordinates (X,Y,Z):    1.000000E-03    1.000000E-03    4.300000E-01
     TEMPORAL STATISTIC: RUNNING AVERAGE
  78 ID: TG_CL
     QUANTITY: TEMPERATURE
     Coordinates (X,Y,Z):    1.000000E-03    1.000000E-03    4.500000E-01
     TEMPORAL STATISTIC: RUNNING AVERAGE
  79 ID: TG_CL
     QUANTITY: TEMPERATURE
     Coordinates (X,Y,Z):    1.000000E-03    1.000000E-03    4.700000E-01
     TEMPORAL STATISTIC: RUNNING AVERAGE
  80 ID: TG_CL
     QUANTITY: TEMPERATURE
     Coordinates (X,Y,Z):    1.000000E-03    1.000000E-03    4.900000E-01
     TEMPORAL STATISTIC: RUNNING AVERAGE
  81 ID: TG_CL
     QUANTITY: TEMPERATURE
     Coordinates (X,Y,Z):    1.000000E-03    1.000000E-03    5.100000E-01
     TEMPORAL STATISTIC: RUNNING AVERAGE
  82 ID: TG_CL
     QUANTITY: TEMPERATURE
     Coordinates (X,Y,Z):    1.000000E-03    1.000000E-03    5.300000E-01
     TEMPORAL STATISTIC: RUNNING AVERAGE
  83 ID: TG_CL
     QUANTITY: TEMPERATURE
     Coordinates (X,Y,Z):    1.000000E-03    1.000000E-03    5.500000E-01
     TEMPORAL STATISTIC: RUNNING AVERAGE
  84 ID: TG_CL
     QUANTITY: TEMPERATURE
     Coordinates (X,Y,Z):    1.000000E-03    1.000000E-03    5.700000E-01
     TEMPORAL STATISTIC: RUNNING AVERAGE
  85 ID: TG_CL
     QUANTITY: TEMPERATURE
     Coordinates (X,Y,Z):    1.000000E-03    1.000000E-03    5.900000E-01
     TEMPORAL STATISTIC: RUNNING AVERAGE
  86 ID: TG_CL
     QUANTITY: TEMPERATURE
     Coordinates (X,Y,Z):    1.000000E-03    1.000000E-03    6.100000E-01
     TEMPORAL STATISTIC: RUNNING AVERAGE
  87 ID: TG_CL
     QUANTITY: TEMPERATURE
     Coordinates (X,Y,Z):    1.000000E-03    1.000000E-03    6.300000E-01
     TEMPORAL STATISTIC: RUNNING AVERAGE
  88 ID: TG_CL
     QUANTITY: TEMPERATURE
     Coordinates (X,Y,Z):    1.000000E-03    1.000000E-03    6.500000E-01
     TEMPORAL STATISTIC: RUNNING AVERAGE
  89 ID: TG_CL
     QUANTITY: TEMPERATURE
     Coordinates (X,Y,Z):    1.000000E-03    1.000000E-03    6.700000E-01
     TEMPORAL STATISTIC: RUNNING AVERAGE
  90 ID: TG_CL
     QUANTITY: TEMPERATURE
     Coordinates (X,Y,Z):    1.000000E-03    1.000000E-03    6.900000E-01
     TEMPORAL STATISTIC: RUNNING AVERAGE
  91 ID: TG_CL
     QUANTITY: TEMPERATURE
     Coordinates (X,Y,Z):    1.000000E-03    1.000000E-03    7.100000E-01
     TEMPORAL STATISTIC: RUNNING AVERAGE
  92 ID: TG_CL
     QUANTITY: TEMPERATURE
     Coordinates (X,Y,Z):    1.000000E-03    1.000000E-03    7.300000E-01
     TEMPORAL STATISTIC: RUNNING AVERAGE
  93 ID: TG_CL
     QUANTITY: TEMPERATURE
     Coordinates (X,Y,Z):    1.000000E-03    1.000000E-03    7.500000E-01
     TEMPORAL STATISTIC: RUNNING AVERAGE
  94 ID: TG_CL
     QUANTITY: TEMPERATURE
     Coordinates (X,Y,Z):    1.000000E-03    1.000000E-03    7.700000E-01
     TEMPORAL STATISTIC: RUNNING AVERAGE
  95 ID: TG_CL
     QUANTITY: TEMPERATURE
     Coordinates (X,Y,Z):    1.000000E-03    1.000000E-03    7.900000E-01
     TEMPORAL STATISTIC: RUNNING AVERAGE
  96 ID: TG_CL
     QUANTITY: TEMPERATURE
     Coordinates (X,Y,Z):    1.000000E-03    1.000000E-03    8.100000E-01
     TEMPORAL STATISTIC: RUNNING AVERAGE
  97 ID: TG_CL
     QUANTITY: TEMPERATURE
     Coordinates (X,Y,Z):    1.000000E-03    1.000000E-03    8.300000E-01
     TEMPORAL STATISTIC: RUNNING AVERAGE
  98 ID: TG_CL
     QUANTITY: TEMPERATURE
     Coordinates (X,Y,Z):    1.000000E-03    1.000000E-03    8.500000E-01
     TEMPORAL STATISTIC: RUNNING AVERAGE
  99 ID: TG_CL
     QUANTITY: TEMPERATURE
     Coordinates (X,Y,Z):    1.000000E-03    1.000000E-03    8.700000E-01
     TEMPORAL STATISTIC: RUNNING AVERAGE
 100 ID: TG_CL
     QUANTITY: TEMPERATURE
     Coordinates (X,Y,Z):    1.000000E-03    1.000000E-03    8.900000E-01
     TEMPORAL STATISTIC: RUNNING AVERAGE
 101 ID: TG_CL
     QUANTITY: TEMPERATURE
     Coordinates (X,Y,Z):    1.000000E-03    1.000000E-03    9.100000E-01
     TEMPORAL STATISTIC: RUNNING AVERAGE
 102 ID: TG_CL
     QUANTITY: TEMPERATURE
     Coordinates (X,Y,Z):    1.000000E-03    1.000000E-03    9.300000E-01
     TEMPORAL STATISTIC: RUNNING AVERAGE
 103 ID: TG_CL
     QUANTITY: TEMPERATURE
     Coordinates (X,Y,Z):    1.000000E-03    1.000000E-03    9.500000E-01
     TEMPORAL STATISTIC: RUNNING AVERAGE
 104 ID: TG_CL
     QUANTITY: TEMPERATURE
     Coordinates (X,Y,Z):    1.000000E-03    1.000000E-03    9.700000E-01
     TEMPORAL STATISTIC: RUNNING AVERAGE
 105 ID: TG_CL
     QUANTITY: TEMPERATURE
     Coordinates (X,Y,Z):    1.000000E-03    1.000000E-03    9.900000E-01
     TEMPORAL STATISTIC: RUNNING AVERAGE
 106 ID: w_CL
     QUANTITY: W-VELOCITY
     Coordinates (X,Y,Z):    1.000000E-03    1.000000E-03    1.000000E-02
     TEMPORAL STATISTIC: RUNNING AVERAGE
 107 ID: w_CL
     QUANTITY: W-VELOCITY
     Coordinates (X,Y,Z):    1.000000E-03    1.000000E-03    3.000000E-02
     TEMPORAL STATISTIC: RUNNING AVERAGE
 108 ID: w_CL
     QUANTITY: W-VELOCITY
     Coordinates (X,Y,Z):    1.000000E-03    1.000000E-03    5.000000E-02
     TEMPORAL STATISTIC: RUNNING AVERAGE
 109 ID: w_CL
     QUANTITY: W-VELOCITY
     Coordinates (X,Y,Z):    1.000000E-03    1.000000E-03    7.000000E-02
     TEMPORAL STATISTIC: RUNNING AVERAGE
 110 ID: w_CL
     QUANTITY: W-VELOCITY
     Coordinates (X,Y,Z):    1.000000E-03    1.000000E-03    9.000000E-02
     TEMPORAL STATISTIC: RUNNING AVERAGE
 111 ID: w_CL
     QUANTITY: W-VELOCITY
     Coordinates (X,Y,Z):    1.000000E-03    1.000000E-03    1.100000E-01
     TEMPORAL STATISTIC: RUNNING AVERAGE
 112 ID: w_CL
     QUANTITY: W-VELOCITY
     Coordinates (X,Y,Z):    1.000000E-03    1.000000E-03    1.300000E-01
     TEMPORAL STATISTIC: RUNNING AVERAGE
 113 ID: w_CL
     QUANTITY: W-VELOCITY
     Coordinates (X,Y,Z):    1.000000E-03    1.000000E-03    1.500000E-01
     TEMPORAL STATISTIC: RUNNING AVERAGE
 114 ID: w_CL
     QUANTITY: W-VELOCITY
     Coordinates (X,Y,Z):    1.000000E-03    1.000000E-03    1.700000E-01
     TEMPORAL STATISTIC: RUNNING AVERAGE
 115 ID: w_CL
     QUANTITY: W-VELOCITY
     Coordinates (X,Y,Z):    1.000000E-03    1.000000E-03    1.900000E-01
     TEMPORAL STATISTIC: RUNNING AVERAGE
 116 ID: w_CL
     QUANTITY: W-VELOCITY
     Coordinates (X,Y,Z):    1.000000E-03    1.000000E-03    2.100000E-01
     TEMPORAL STATISTIC: RUNNING AVERAGE
 117 ID: w_CL
     QUANTITY: W-VELOCITY
     Coordinates (X,Y,Z):    1.000000E-03    1.000000E-03    2.300000E-01
     TEMPORAL STATISTIC: RUNNING AVERAGE
 118 ID: w_CL
     QUANTITY: W-VELOCITY
     Coordinates (X,Y,Z):    1.000000E-03    1.000000E-03    2.500000E-01
     TEMPORAL STATISTIC: RUNNING AVERAGE
 119 ID: w_CL
     QUANTITY: W-VELOCITY
     Coordinates (X,Y,Z):    1.000000E-03    1.000000E-03    2.700000E-01
     TEMPORAL STATISTIC: RUNNING AVERAGE
 120 ID: w_CL
     QUANTITY: W-VELOCITY
     Coordinates (X,Y,Z):    1.000000E-03    1.000000E-03    2.900000E-01
     TEMPORAL STATISTIC: RUNNING AVERAGE
 121 ID: w_CL
     QUANTITY: W-VELOCITY
     Coordinates (X,Y,Z):    1.000000E-03    1.000000E-03    3.100000E-01
     TEMPORAL STATISTIC: RUNNING AVERAGE
 122 ID: w_CL
     QUANTITY: W-VELOCITY
     Coordinates (X,Y,Z):    1.000000E-03    1.000000E-03    3.300000E-01
     TEMPORAL STATISTIC: RUNNING AVERAGE
 123 ID: w_CL
     QUANTITY: W-VELOCITY
     Coordinates (X,Y,Z):    1.000000E-03    1.000000E-03    3.500000E-01
     TEMPORAL STATISTIC: RUNNING AVERAGE
 124 ID: w_CL
     QUANTITY: W-VELOCITY
     Coordinates (X,Y,Z):    1.000000E-03    1.000000E-03    3.700000E-01
     TEMPORAL STATISTIC: RUNNING AVERAGE
 125 ID: w_CL
     QUANTITY: W-VELOCITY
     Coordinates (X,Y,Z):    1.000000E-03    1.000000E-03    3.900000E-01
     TEMPORAL STATISTIC: RUNNING AVERAGE
 126 ID: w_CL
     QUANTITY: W-VELOCITY
     Coordinates (X,Y,Z):    1.000000E-03    1.000000E-03    4.100000E-01
     TEMPORAL STATISTIC: RUNNING AVERAGE
 127 ID: w_CL
     QUANTITY: W-VELOCITY
     Coordinates (X,Y,Z):    1.000000E-03    1.000000E-03    4.300000E-01
     TEMPORAL STATISTIC: RUNNING AVERAGE
 128 ID: w_CL
     QUANTITY: W-VELOCITY
     Coordinates (X,Y,Z):    1.000000E-03    1.000000E-03    4.500000E-01
     TEMPORAL STATISTIC: RUNNING AVERAGE
 129 ID: w_CL
     QUANTITY: W-VELOCITY
     Coordinates (X,Y,Z):    1.000000E-03    1.000000E-03    4.700000E-01
     TEMPORAL STATISTIC: RUNNING AVERAGE
 130 ID: w_CL
     QUANTITY: W-VELOCITY
     Coordinates (X,Y,Z):    1.000000E-03    1.000000E-03    4.900000E-01
     TEMPORAL STATISTIC: RUNNING AVERAGE
 131 ID: w_CL
     QUANTITY: W-VELOCITY
     Coordinates (X,Y,Z):    1.000000E-03    1.000000E-03    5.100000E-01
     TEMPORAL STATISTIC: RUNNING AVERAGE
 132 ID: w_CL
     QUANTITY: W-VELOCITY
     Coordinates (X,Y,Z):    1.000000E-03    1.000000E-03    5.300000E-01
     TEMPORAL STATISTIC: RUNNING AVERAGE
 133 ID: w_CL
     QUANTITY: W-VELOCITY
     Coordinates (X,Y,Z):    1.000000E-03    1.000000E-03    5.500000E-01
     TEMPORAL STATISTIC: RUNNING AVERAGE
 134 ID: w_CL
     QUANTITY: W-VELOCITY
     Coordinates (X,Y,Z):    1.000000E-03    1.000000E-03    5.700000E-01
     TEMPORAL STATISTIC: RUNNING AVERAGE
 135 ID: w_CL
     QUANTITY: W-VELOCITY
     Coordinates (X,Y,Z):    1.000000E-03    1.000000E-03    5.900000E-01
     TEMPORAL STATISTIC: RUNNING AVERAGE
 136 ID: w_CL
     QUANTITY: W-VELOCITY
     Coordinates (X,Y,Z):    1.000000E-03    1.000000E-03    6.100000E-01
     TEMPORAL STATISTIC: RUNNING AVERAGE
 137 ID: w_CL
     QUANTITY: W-VELOCITY
     Coordinates (X,Y,Z):    1.000000E-03    1.000000E-03    6.300000E-01
     TEMPORAL STATISTIC: RUNNING AVERAGE
 138 ID: w_CL
     QUANTITY: W-VELOCITY
     Coordinates (X,Y,Z):    1.000000E-03    1.000000E-03    6.500000E-01
     TEMPORAL STATISTIC: RUNNING AVERAGE
 139 ID: w_CL
     QUANTITY: W-VELOCITY
     Coordinates (X,Y,Z):    1.000000E-03    1.000000E-03    6.700000E-01
     TEMPORAL STATISTIC: RUNNING AVERAGE
 140 ID: w_CL
     QUANTITY: W-VELOCITY
     Coordinates (X,Y,Z):    1.000000E-03    1.000000E-03    6.900000E-01
     TEMPORAL STATISTIC: RUNNING AVERAGE
 141 ID: w_CL
     QUANTITY: W-VELOCITY
     Coordinates (X,Y,Z):    1.000000E-03    1.000000E-03    7.100000E-01
     TEMPORAL STATISTIC: RUNNING AVERAGE
 142 ID: w_CL
     QUANTITY: W-VELOCITY
     Coordinates (X,Y,Z):    1.000000E-03    1.000000E-03    7.300000E-01
     TEMPORAL STATISTIC: RUNNING AVERAGE
 143 ID: w_CL
     QUANTITY: W-VELOCITY
     Coordinates (X,Y,Z):    1.000000E-03    1.000000E-03    7.500000E-01
     TEMPORAL STATISTIC: RUNNING AVERAGE
 144 ID: w_CL
     QUANTITY: W-VELOCITY
     Coordinates (X,Y,Z):    1.000000E-03    1.000000E-03    7.700000E-01
     TEMPORAL STATISTIC: RUNNING AVERAGE
 145 ID: w_CL
     QUANTITY: W-VELOCITY
     Coordinates (X,Y,Z):    1.000000E-03    1.000000E-03    7.900000E-01
     TEMPORAL STATISTIC: RUNNING AVERAGE
 146 ID: w_CL
     QUANTITY: W-VELOCITY
     Coordinates (X,Y,Z):    1.000000E-03    1.000000E-03    8.100000E-01
     TEMPORAL STATISTIC: RUNNING AVERAGE
 147 ID: w_CL
     QUANTITY: W-VELOCITY
     Coordinates (X,Y,Z):    1.000000E-03    1.000000E-03    8.300000E-01
     TEMPORAL STATISTIC: RUNNING AVERAGE
 148 ID: w_CL
     QUANTITY: W-VELOCITY
     Coordinates (X,Y,Z):    1.000000E-03    1.000000E-03    8.500000E-01
     TEMPORAL STATISTIC: RUNNING AVERAGE
 149 ID: w_CL
     QUANTITY: W-VELOCITY
     Coordinates (X,Y,Z):    1.000000E-03    1.000000E-03    8.700000E-01
     TEMPORAL STATISTIC: RUNNING AVERAGE
 150 ID: w_CL
     QUANTITY: W-VELOCITY
     Coordinates (X,Y,Z):    1.000000E-03    1.000000E-03    8.900000E-01
     TEMPORAL STATISTIC: RUNNING AVERAGE
 151 ID: w_CL
     QUANTITY: W-VELOCITY
     Coordinates (X,Y,Z):    1.000000E-03    1.000000E-03    9.100000E-01
     TEMPORAL STATISTIC: RUNNING AVERAGE
 152 ID: w_CL
     QUANTITY: W-VELOCITY
     Coordinates (X,Y,Z):    1.000000E-03    1.000000E-03    9.300000E-01
     TEMPORAL STATISTIC: RUNNING AVERAGE
 153 ID: w_CL
     QUANTITY: W-VELOCITY
     Coordinates (X,Y,Z):    1.000000E-03    1.000000E-03    9.500000E-01
     TEMPORAL STATISTIC: RUNNING AVERAGE
 154 ID: w_CL
     QUANTITY: W-VELOCITY
     Coordinates (X,Y,Z):    1.000000E-03    1.000000E-03    9.700000E-01
     TEMPORAL STATISTIC: RUNNING AVERAGE
 155 ID: w_CL
     QUANTITY: W-VELOCITY
     Coordinates (X,Y,Z):    1.000000E-03    1.000000E-03    9.900000E-01
     TEMPORAL STATISTIC: RUNNING AVERAGE
 156 ID: TC_CL_RMS
     QUANTITY: THERMOCOUPLE
     Coordinates (X,Y,Z):    1.000000E-03    1.000000E-03    1.000000E-02
     TEMPORAL STATISTIC: RMS
  Property ID: TC
 157 ID: TC_CL_RMS
     QUANTITY: THERMOCOUPLE
     Coordinates (X,Y,Z):    1.000000E-03    1.000000E-03    3.000000E-02
     TEMPORAL STATISTIC: RMS
  Property ID: TC
 158 ID: TC_CL_RMS
     QUANTITY: THERMOCOUPLE
     Coordinates (X,Y,Z):    1.000000E-03    1.000000E-03    5.000000E-02
     TEMPORAL STATISTIC: RMS
  Property ID: TC
 159 ID: TC_CL_RMS
     QUANTITY: THERMOCOUPLE
     Coordinates (X,Y,Z):    1.000000E-03    1.000000E-03    7.000000E-02
     TEMPORAL STATISTIC: RMS
  Property ID: TC
 160 ID: TC_CL_RMS
     QUANTITY: THERMOCOUPLE
     Coordinates (X,Y,Z):    1.000000E-03    1.000000E-03    9.000000E-02
     TEMPORAL STATISTIC: RMS
  Property ID: TC
 161 ID: TC_CL_RMS
     QUANTITY: THERMOCOUPLE
     Coordinates (X,Y,Z):    1.000000E-03    1.000000E-03    1.100000E-01
     TEMPORAL STATISTIC: RMS
  Property ID: TC
 162 ID: TC_CL_RMS
     QUANTITY: THERMOCOUPLE
     Coordinates (X,Y,Z):    1.000000E-03    1.000000E-03    1.300000E-01
     TEMPORAL STATISTIC: RMS
  Property ID: TC
 163 ID: TC_CL_RMS
     QUANTITY: THERMOCOUPLE
     Coordinates (X,Y,Z):    1.000000E-03    1.000000E-03    1.500000E-01
     TEMPORAL STATISTIC: RMS
  Property ID: TC
 164 ID: TC_CL_RMS
     QUANTITY: THERMOCOUPLE
     Coordinates (X,Y,Z):    1.000000E-03    1.000000E-03    1.700000E-01
     TEMPORAL STATISTIC: RMS
  Property ID: TC
 165 ID: TC_CL_RMS
     QUANTITY: THERMOCOUPLE
     Coordinates (X,Y,Z):    1.000000E-03    1.000000E-03    1.900000E-01
     TEMPORAL STATISTIC: RMS
  Property ID: TC
 166 ID: TC_CL_RMS
     QUANTITY: THERMOCOUPLE
     Coordinates (X,Y,Z):    1.000000E-03    1.000000E-03    2.100000E-01
     TEMPORAL STATISTIC: RMS
  Property ID: TC
 167 ID: TC_CL_RMS
     QUANTITY: THERMOCOUPLE
     Coordinates (X,Y,Z):    1.000000E-03    1.000000E-03    2.300000E-01
     TEMPORAL STATISTIC: RMS
  Property ID: TC
 168 ID: TC_CL_RMS
     QUANTITY: THERMOCOUPLE
     Coordinates (X,Y,Z):    1.000000E-03    1.000000E-03    2.500000E-01
     TEMPORAL STATISTIC: RMS
  Property ID: TC
 169 ID: TC_CL_RMS
     QUANTITY: THERMOCOUPLE
     Coordinates (X,Y,Z):    1.000000E-03    1.000000E-03    2.700000E-01
     TEMPORAL STATISTIC: RMS
  Property ID: TC
 170 ID: TC_CL_RMS
     QUANTITY: THERMOCOUPLE
     Coordinates (X,Y,Z):    1.000000E-03    1.000000E-03    2.900000E-01
     TEMPORAL STATISTIC: RMS
  Property ID: TC
 171 ID: TC_CL_RMS
     QUANTITY: THERMOCOUPLE
     Coordinates (X,Y,Z):    1.000000E-03    1.000000E-03    3.100000E-01
     TEMPORAL STATISTIC: RMS
  Property ID: TC
 172 ID: TC_CL_RMS
     QUANTITY: THERMOCOUPLE
     Coordinates (X,Y,Z):    1.000000E-03    1.000000E-03    3.300000E-01
     TEMPORAL STATISTIC: RMS
  Property ID: TC
 173 ID: TC_CL_RMS
     QUANTITY: THERMOCOUPLE
     Coordinates (X,Y,Z):    1.000000E-03    1.000000E-03    3.500000E-01
     TEMPORAL STATISTIC: RMS
  Property ID: TC
 174 ID: TC_CL_RMS
     QUANTITY: THERMOCOUPLE
     Coordinates (X,Y,Z):    1.000000E-03    1.000000E-03    3.700000E-01
     TEMPORAL STATISTIC: RMS
  Property ID: TC
 175 ID: TC_CL_RMS
     QUANTITY: THERMOCOUPLE
     Coordinates (X,Y,Z):    1.000000E-03    1.000000E-03    3.900000E-01
     TEMPORAL STATISTIC: RMS
  Property ID: TC
 176 ID: TC_CL_RMS
     QUANTITY: THERMOCOUPLE
     Coordinates (X,Y,Z):    1.000000E-03    1.000000E-03    4.100000E-01
     TEMPORAL STATISTIC: RMS
  Property ID: TC
 177 ID: TC_CL_RMS
     QUANTITY: THERMOCOUPLE
     Coordinates (X,Y,Z):    1.000000E-03    1.000000E-03    4.300000E-01
     TEMPORAL STATISTIC: RMS
  Property ID: TC
 178 ID: TC_CL_RMS
     QUANTITY: THERMOCOUPLE
     Coordinates (X,Y,Z):    1.000000E-03    1.000000E-03    4.500000E-01
     TEMPORAL STATISTIC: RMS
  Property ID: TC
 179 ID: TC_CL_RMS
     QUANTITY: THERMOCOUPLE
     Coordinates (X,Y,Z):    1.000000E-03    1.000000E-03    4.700000E-01
     TEMPORAL STATISTIC: RMS
  Property ID: TC
 180 ID: TC_CL_RMS
     QUANTITY: THERMOCOUPLE
     Coordinates (X,Y,Z):    1.000000E-03    1.000000E-03    4.900000E-01
     TEMPORAL STATISTIC: RMS
  Property ID: TC
 181 ID: TC_CL_RMS
     QUANTITY: THERMOCOUPLE
     Coordinates (X,Y,Z):    1.000000E-03    1.000000E-03    5.100000E-01
     TEMPORAL STATISTIC: RMS
  Property ID: TC
 182 ID: TC_CL_RMS
     QUANTITY: THERMOCOUPLE
     Coordinates (X,Y,Z):    1.000000E-03    1.000000E-03    5.300000E-01
     TEMPORAL STATISTIC: RMS
  Property ID: TC
 183 ID: TC_CL_RMS
     QUANTITY: THERMOCOUPLE
     Coordinates (X,Y,Z):    1.000000E-03    1.000000E-03    5.500000E-01
     TEMPORAL STATISTIC: RMS
  Property ID: TC
 184 ID: TC_CL_RMS
     QUANTITY: THERMOCOUPLE
     Coordinates (X,Y,Z):    1.000000E-03    1.000000E-03    5.700000E-01
     TEMPORAL STATISTIC: RMS
  Property ID: TC
 185 ID: TC_CL_RMS
     QUANTITY: THERMOCOUPLE
     Coordinates (X,Y,Z):    1.000000E-03    1.000000E-03    5.900000E-01
     TEMPORAL STATISTIC: RMS
  Property ID: TC
 186 ID: TC_CL_RMS
     QUANTITY: THERMOCOUPLE
     Coordinates (X,Y,Z):    1.000000E-03    1.000000E-03    6.100000E-01
     TEMPORAL STATISTIC: RMS
  Property ID: TC
 187 ID: TC_CL_RMS
     QUANTITY: THERMOCOUPLE
     Coordinates (X,Y,Z):    1.000000E-03    1.000000E-03    6.300000E-01
     TEMPORAL STATISTIC: RMS
  Property ID: TC
 188 ID: TC_CL_RMS
     QUANTITY: THERMOCOUPLE
     Coordinates (X,Y,Z):    1.000000E-03    1.000000E-03    6.500000E-01
     TEMPORAL STATISTIC: RMS
  Property ID: TC
 189 ID: TC_CL_RMS
     QUANTITY: THERMOCOUPLE
     Coordinates (X,Y,Z):    1.000000E-03    1.000000E-03    6.700000E-01
     TEMPORAL STATISTIC: RMS
  Property ID: TC
 190 ID: TC_CL_RMS
     QUANTITY: THERMOCOUPLE
     Coordinates (X,Y,Z):    1.000000E-03    1.000000E-03    6.900000E-01
     TEMPORAL STATISTIC: RMS
  Property ID: TC
 191 ID: TC_CL_RMS
     QUANTITY: THERMOCOUPLE
     Coordinates (X,Y,Z):    1.000000E-03    1.000000E-03    7.100000E-01
     TEMPORAL STATISTIC: RMS
  Property ID: TC
 192 ID: TC_CL_RMS
     QUANTITY: THERMOCOUPLE
     Coordinates (X,Y,Z):    1.000000E-03    1.000000E-03    7.300000E-01
     TEMPORAL STATISTIC: RMS
  Property ID: TC
 193 ID: TC_CL_RMS
     QUANTITY: THERMOCOUPLE
     Coordinates (X,Y,Z):    1.000000E-03    1.000000E-03    7.500000E-01
     TEMPORAL STATISTIC: RMS
  Property ID: TC
 194 ID: TC_CL_RMS
     QUANTITY: THERMOCOUPLE
     Coordinates (X,Y,Z):    1.000000E-03    1.000000E-03    7.700000E-01
     TEMPORAL STATISTIC: RMS
  Property ID: TC
 195 ID: TC_CL_RMS
     QUANTITY: THERMOCOUPLE
     Coordinates (X,Y,Z):    1.000000E-03    1.000000E-03    7.900000E-01
     TEMPORAL STATISTIC: RMS
  Property ID: TC
 196 ID: TC_CL_RMS
     QUANTITY: THERMOCOUPLE
     Coordinates (X,Y,Z):    1.000000E-03    1.000000E-03    8.100000E-01
     TEMPORAL STATISTIC: RMS
  Property ID: TC
 197 ID: TC_CL_RMS
     QUANTITY: THERMOCOUPLE
     Coordinates (X,Y,Z):    1.000000E-03    1.000000E-03    8.300000E-01
     TEMPORAL STATISTIC: RMS
  Property ID: TC
 198 ID: TC_CL_RMS
     QUANTITY: THERMOCOUPLE
     Coordinates (X,Y,Z):    1.000000E-03    1.000000E-03    8.500000E-01
     TEMPORAL STATISTIC: RMS
  Property ID: TC
 199 ID: TC_CL_RMS
     QUANTITY: THERMOCOUPLE
     Coordinates (X,Y,Z):    1.000000E-03    1.000000E-03    8.700000E-01
     TEMPORAL STATISTIC: RMS
  Property ID: TC
 200 ID: TC_CL_RMS
     QUANTITY: THERMOCOUPLE
     Coordinates (X,Y,Z):    1.000000E-03    1.000000E-03    8.900000E-01
     TEMPORAL STATISTIC: RMS
  Property ID: TC
 201 ID: TC_CL_RMS
     QUANTITY: THERMOCOUPLE
     Coordinates (X,Y,Z):    1.000000E-03    1.000000E-03    9.100000E-01
     TEMPORAL STATISTIC: RMS
  Property ID: TC
 202 ID: TC_CL_RMS
     QUANTITY: THERMOCOUPLE
     Coordinates (X,Y,Z):    1.000000E-03    1.000000E-03    9.300000E-01
     TEMPORAL STATISTIC: RMS
  Property ID: TC
 203 ID: TC_CL_RMS
     QUANTITY: THERMOCOUPLE
     Coordinates (X,Y,Z):    1.000000E-03    1.000000E-03    9.500000E-01
     TEMPORAL STATISTIC: RMS
  Property ID: TC
 204 ID: TC_CL_RMS
     QUANTITY: THERMOCOUPLE
     Coordinates (X,Y,Z):    1.000000E-03    1.000000E-03    9.700000E-01
     TEMPORAL STATISTIC: RMS
  Property ID: TC
 205 ID: TC_CL_RMS
     QUANTITY: THERMOCOUPLE
     Coordinates (X,Y,Z):    1.000000E-03    1.000000E-03    9.900000E-01
     TEMPORAL STATISTIC: RMS
  Property ID: TC
 206 ID: TG_CL_RMS
     QUANTITY: TEMPERATURE
     Coordinates (X,Y,Z):    1.000000E-03    1.000000E-03    1.000000E-02
     TEMPORAL STATISTIC: RMS
 207 ID: TG_CL_RMS
     QUANTITY: TEMPERATURE
     Coordinates (X,Y,Z):    1.000000E-03    1.000000E-03    3.000000E-02
     TEMPORAL STATISTIC: RMS
 208 ID: TG_CL_RMS
     QUANTITY: TEMPERATURE
     Coordinates (X,Y,Z):    1.000000E-03    1.000000E-03    5.000000E-02
     TEMPORAL STATISTIC: RMS
 209 ID: TG_CL_RMS
     QUANTITY: TEMPERATURE
     Coordinates (X,Y,Z):    1.000000E-03    1.000000E-03    7.000000E-02
     TEMPORAL STATISTIC: RMS
 210 ID: TG_CL_RMS
     QUANTITY: TEMPERATURE
     Coordinates (X,Y,Z):    1.000000E-03    1.000000E-03    9.000000E-02
     TEMPORAL STATISTIC: RMS
 211 ID: TG_CL_RMS
     QUANTITY: TEMPERATURE
     Coordinates (X,Y,Z):    1.000000E-03    1.000000E-03    1.100000E-01
     TEMPORAL STATISTIC: RMS
 212 ID: TG_CL_RMS
     QUANTITY: TEMPERATURE
     Coordinates (X,Y,Z):    1.000000E-03    1.000000E-03    1.300000E-01
     TEMPORAL STATISTIC: RMS
 213 ID: TG_CL_RMS
     QUANTITY: TEMPERATURE
     Coordinates (X,Y,Z):    1.000000E-03    1.000000E-03    1.500000E-01
     TEMPORAL STATISTIC: RMS
 214 ID: TG_CL_RMS
     QUANTITY: TEMPERATURE
     Coordinates (X,Y,Z):    1.000000E-03    1.000000E-03    1.700000E-01
     TEMPORAL STATISTIC: RMS
 215 ID: TG_CL_RMS
     QUANTITY: TEMPERATURE
     Coordinates (X,Y,Z):    1.000000E-03    1.000000E-03    1.900000E-01
     TEMPORAL STATISTIC: RMS
 216 ID: TG_CL_RMS
     QUANTITY: TEMPERATURE
     Coordinates (X,Y,Z):    1.000000E-03    1.000000E-03    2.100000E-01
     TEMPORAL STATISTIC: RMS
 217 ID: TG_CL_RMS
     QUANTITY: TEMPERATURE
     Coordinates (X,Y,Z):    1.000000E-03    1.000000E-03    2.300000E-01
     TEMPORAL STATISTIC: RMS
 218 ID: TG_CL_RMS
     QUANTITY: TEMPERATURE
     Coordinates (X,Y,Z):    1.000000E-03    1.000000E-03    2.500000E-01
     TEMPORAL STATISTIC: RMS
 219 ID: TG_CL_RMS
     QUANTITY: TEMPERATURE
     Coordinates (X,Y,Z):    1.000000E-03    1.000000E-03    2.700000E-01
     TEMPORAL STATISTIC: RMS
 220 ID: TG_CL_RMS
     QUANTITY: TEMPERATURE
     Coordinates (X,Y,Z):    1.000000E-03    1.000000E-03    2.900000E-01
     TEMPORAL STATISTIC: RMS
 221 ID: TG_CL_RMS
     QUANTITY: TEMPERATURE
     Coordinates (X,Y,Z):    1.000000E-03    1.000000E-03    3.100000E-01
     TEMPORAL STATISTIC: RMS
 222 ID: TG_CL_RMS
     QUANTITY: TEMPERATURE
     Coordinates (X,Y,Z):    1.000000E-03    1.000000E-03    3.300000E-01
     TEMPORAL STATISTIC: RMS
 223 ID: TG_CL_RMS
     QUANTITY: TEMPERATURE
     Coordinates (X,Y,Z):    1.000000E-03    1.000000E-03    3.500000E-01
     TEMPORAL STATISTIC: RMS
 224 ID: TG_CL_RMS
     QUANTITY: TEMPERATURE
     Coordinates (X,Y,Z):    1.000000E-03    1.000000E-03    3.700000E-01
     TEMPORAL STATISTIC: RMS
 225 ID: TG_CL_RMS
     QUANTITY: TEMPERATURE
     Coordinates (X,Y,Z):    1.000000E-03    1.000000E-03    3.900000E-01
     TEMPORAL STATISTIC: RMS
 226 ID: TG_CL_RMS
     QUANTITY: TEMPERATURE
     Coordinates (X,Y,Z):    1.000000E-03    1.000000E-03    4.100000E-01
     TEMPORAL STATISTIC: RMS
 227 ID: TG_CL_RMS
     QUANTITY: TEMPERATURE
     Coordinates (X,Y,Z):    1.000000E-03    1.000000E-03    4.300000E-01
     TEMPORAL STATISTIC: RMS
 228 ID: TG_CL_RMS
     QUANTITY: TEMPERATURE
     Coordinates (X,Y,Z):    1.000000E-03    1.000000E-03    4.500000E-01
     TEMPORAL STATISTIC: RMS
 229 ID: TG_CL_RMS
     QUANTITY: TEMPERATURE
     Coordinates (X,Y,Z):    1.000000E-03    1.000000E-03    4.700000E-01
     TEMPORAL STATISTIC: RMS
 230 ID: TG_CL_RMS
     QUANTITY: TEMPERATURE
     Coordinates (X,Y,Z):    1.000000E-03    1.000000E-03    4.900000E-01
     TEMPORAL STATISTIC: RMS
 231 ID: TG_CL_RMS
     QUANTITY: TEMPERATURE
     Coordinates (X,Y,Z):    1.000000E-03    1.000000E-03    5.100000E-01
     TEMPORAL STATISTIC: RMS
 232 ID: TG_CL_RMS
     QUANTITY: TEMPERATURE
     Coordinates (X,Y,Z):    1.000000E-03    1.000000E-03    5.300000E-01
     TEMPORAL STATISTIC: RMS
 233 ID: TG_CL_RMS
     QUANTITY: TEMPERATURE
     Coordinates (X,Y,Z):    1.000000E-03    1.000000E-03    5.500000E-01
     TEMPORAL STATISTIC: RMS
 234 ID: TG_CL_RMS
     QUANTITY: TEMPERATURE
     Coordinates (X,Y,Z):    1.000000E-03    1.000000E-03    5.700000E-01
     TEMPORAL STATISTIC: RMS
 235 ID: TG_CL_RMS
     QUANTITY: TEMPERATURE
     Coordinates (X,Y,Z):    1.000000E-03    1.000000E-03    5.900000E-01
     TEMPORAL STATISTIC: RMS
 236 ID: TG_CL_RMS
     QUANTITY: TEMPERATURE
     Coordinates (X,Y,Z):    1.000000E-03    1.000000E-03    6.100000E-01
     TEMPORAL STATISTIC: RMS
 237 ID: TG_CL_RMS
     QUANTITY: TEMPERATURE
     Coordinates (X,Y,Z):    1.000000E-03    1.000000E-03    6.300000E-01
     TEMPORAL STATISTIC: RMS
 238 ID: TG_CL_RMS
     QUANTITY: TEMPERATURE
     Coordinates (X,Y,Z):    1.000000E-03    1.000000E-03    6.500000E-01
     TEMPORAL STATISTIC: RMS
 239 ID: TG_CL_RMS
     QUANTITY: TEMPERATURE
     Coordinates (X,Y,Z):    1.000000E-03    1.000000E-03    6.700000E-01
     TEMPORAL STATISTIC: RMS
 240 ID: TG_CL_RMS
     QUANTITY: TEMPERATURE
     Coordinates (X,Y,Z):    1.000000E-03    1.000000E-03    6.900000E-01
     TEMPORAL STATISTIC: RMS
 241 ID: TG_CL_RMS
     QUANTITY: TEMPERATURE
     Coordinates (X,Y,Z):    1.000000E-03    1.000000E-03    7.100000E-01
     TEMPORAL STATISTIC: RMS
 242 ID: TG_CL_RMS
     QUANTITY: TEMPERATURE
     Coordinates (X,Y,Z):    1.000000E-03    1.000000E-03    7.300000E-01
     TEMPORAL STATISTIC: RMS
 243 ID: TG_CL_RMS
     QUANTITY: TEMPERATURE
     Coordinates (X,Y,Z):    1.000000E-03    1.000000E-03    7.500000E-01
     TEMPORAL STATISTIC: RMS
 244 ID: TG_CL_RMS
     QUANTITY: TEMPERATURE
     Coordinates (X,Y,Z):    1.000000E-03    1.000000E-03    7.700000E-01
     TEMPORAL STATISTIC: RMS
 245 ID: TG_CL_RMS
     QUANTITY: TEMPERATURE
     Coordinates (X,Y,Z):    1.000000E-03    1.000000E-03    7.900000E-01
     TEMPORAL STATISTIC: RMS
 246 ID: TG_CL_RMS
     QUANTITY: TEMPERATURE
     Coordinates (X,Y,Z):    1.000000E-03    1.000000E-03    8.100000E-01
     TEMPORAL STATISTIC: RMS
 247 ID: TG_CL_RMS
     QUANTITY: TEMPERATURE
     Coordinates (X,Y,Z):    1.000000E-03    1.000000E-03    8.300000E-01
     TEMPORAL STATISTIC: RMS
 248 ID: TG_CL_RMS
     QUANTITY: TEMPERATURE
     Coordinates (X,Y,Z):    1.000000E-03    1.000000E-03    8.500000E-01
     TEMPORAL STATISTIC: RMS
 249 ID: TG_CL_RMS
     QUANTITY: TEMPERATURE
     Coordinates (X,Y,Z):    1.000000E-03    1.000000E-03    8.700000E-01
     TEMPORAL STATISTIC: RMS
 250 ID: TG_CL_RMS
     QUANTITY: TEMPERATURE
     Coordinates (X,Y,Z):    1.000000E-03    1.000000E-03    8.900000E-01
     TEMPORAL STATISTIC: RMS
 251 ID: TG_CL_RMS
     QUANTITY: TEMPERATURE
     Coordinates (X,Y,Z):    1.000000E-03    1.000000E-03    9.100000E-01
     TEMPORAL STATISTIC: RMS
 252 ID: TG_CL_RMS
     QUANTITY: TEMPERATURE
     Coordinates (X,Y,Z):    1.000000E-03    1.000000E-03    9.300000E-01
     TEMPORAL STATISTIC: RMS
 253 ID: TG_CL_RMS
     QUANTITY: TEMPERATURE
     Coordinates (X,Y,Z):    1.000000E-03    1.000000E-03    9.500000E-01
     TEMPORAL STATISTIC: RMS
 254 ID: TG_CL_RMS
     QUANTITY: TEMPERATURE
     Coordinates (X,Y,Z):    1.000000E-03    1.000000E-03    9.700000E-01
     TEMPORAL STATISTIC: RMS
 255 ID: TG_CL_RMS
     QUANTITY: TEMPERATURE
     Coordinates (X,Y,Z):    1.000000E-03    1.000000E-03    9.900000E-01
     TEMPORAL STATISTIC: RMS
 256 ID: w_CL_RMS
     QUANTITY: W-VELOCITY
     Coordinates (X,Y,Z):    1.000000E-03    1.000000E-03    1.000000E-02
     TEMPORAL STATISTIC: RMS
 257 ID: w_CL_RMS
     QUANTITY: W-VELOCITY
     Coordinates (X,Y,Z):    1.000000E-03    1.000000E-03    3.000000E-02
     TEMPORAL STATISTIC: RMS
 258 ID: w_CL_RMS
     QUANTITY: W-VELOCITY
     Coordinates (X,Y,Z):    1.000000E-03    1.000000E-03    5.000000E-02
     TEMPORAL STATISTIC: RMS
 259 ID: w_CL_RMS
     QUANTITY: W-VELOCITY
     Coordinates (X,Y,Z):    1.000000E-03    1.000000E-03    7.000000E-02
     TEMPORAL STATISTIC: RMS
 260 ID: w_CL_RMS
     QUANTITY: W-VELOCITY
     Coordinates (X,Y,Z):    1.000000E-03    1.000000E-03    9.000000E-02
     TEMPORAL STATISTIC: RMS
 261 ID: w_CL_RMS
     QUANTITY: W-VELOCITY
     Coordinates (X,Y,Z):    1.000000E-03    1.000000E-03    1.100000E-01
     TEMPORAL STATISTIC: RMS
 262 ID: w_CL_RMS
     QUANTITY: W-VELOCITY
     Coordinates (X,Y,Z):    1.000000E-03    1.000000E-03    1.300000E-01
     TEMPORAL STATISTIC: RMS
 263 ID: w_CL_RMS
     QUANTITY: W-VELOCITY
     Coordinates (X,Y,Z):    1.000000E-03    1.000000E-03    1.500000E-01
     TEMPORAL STATISTIC: RMS
 264 ID: w_CL_RMS
     QUANTITY: W-VELOCITY
     Coordinates (X,Y,Z):    1.000000E-03    1.000000E-03    1.700000E-01
     TEMPORAL STATISTIC: RMS
 265 ID: w_CL_RMS
     QUANTITY: W-VELOCITY
     Coordinates (X,Y,Z):    1.000000E-03    1.000000E-03    1.900000E-01
     TEMPORAL STATISTIC: RMS
 266 ID: w_CL_RMS
     QUANTITY: W-VELOCITY
     Coordinates (X,Y,Z):    1.000000E-03    1.000000E-03    2.100000E-01
     TEMPORAL STATISTIC: RMS
 267 ID: w_CL_RMS
     QUANTITY: W-VELOCITY
     Coordinates (X,Y,Z):    1.000000E-03    1.000000E-03    2.300000E-01
     TEMPORAL STATISTIC: RMS
 268 ID: w_CL_RMS
     QUANTITY: W-VELOCITY
     Coordinates (X,Y,Z):    1.000000E-03    1.000000E-03    2.500000E-01
     TEMPORAL STATISTIC: RMS
 269 ID: w_CL_RMS
     QUANTITY: W-VELOCITY
     Coordinates (X,Y,Z):    1.000000E-03    1.000000E-03    2.700000E-01
     TEMPORAL STATISTIC: RMS
 270 ID: w_CL_RMS
     QUANTITY: W-VELOCITY
     Coordinates (X,Y,Z):    1.000000E-03    1.000000E-03    2.900000E-01
     TEMPORAL STATISTIC: RMS
 271 ID: w_CL_RMS
     QUANTITY: W-VELOCITY
     Coordinates (X,Y,Z):    1.000000E-03    1.000000E-03    3.100000E-01
     TEMPORAL STATISTIC: RMS
 272 ID: w_CL_RMS
     QUANTITY: W-VELOCITY
     Coordinates (X,Y,Z):    1.000000E-03    1.000000E-03    3.300000E-01
     TEMPORAL STATISTIC: RMS
 273 ID: w_CL_RMS
     QUANTITY: W-VELOCITY
     Coordinates (X,Y,Z):    1.000000E-03    1.000000E-03    3.500000E-01
     TEMPORAL STATISTIC: RMS
 274 ID: w_CL_RMS
     QUANTITY: W-VELOCITY
     Coordinates (X,Y,Z):    1.000000E-03    1.000000E-03    3.700000E-01
     TEMPORAL STATISTIC: RMS
 275 ID: w_CL_RMS
     QUANTITY: W-VELOCITY
     Coordinates (X,Y,Z):    1.000000E-03    1.000000E-03    3.900000E-01
     TEMPORAL STATISTIC: RMS
 276 ID: w_CL_RMS
     QUANTITY: W-VELOCITY
     Coordinates (X,Y,Z):    1.000000E-03    1.000000E-03    4.100000E-01
     TEMPORAL STATISTIC: RMS
 277 ID: w_CL_RMS
     QUANTITY: W-VELOCITY
     Coordinates (X,Y,Z):    1.000000E-03    1.000000E-03    4.300000E-01
     TEMPORAL STATISTIC: RMS
 278 ID: w_CL_RMS
     QUANTITY: W-VELOCITY
     Coordinates (X,Y,Z):    1.000000E-03    1.000000E-03    4.500000E-01
     TEMPORAL STATISTIC: RMS
 279 ID: w_CL_RMS
     QUANTITY: W-VELOCITY
     Coordinates (X,Y,Z):    1.000000E-03    1.000000E-03    4.700000E-01
     TEMPORAL STATISTIC: RMS
 280 ID: w_CL_RMS
     QUANTITY: W-VELOCITY
     Coordinates (X,Y,Z):    1.000000E-03    1.000000E-03    4.900000E-01
     TEMPORAL STATISTIC: RMS
 281 ID: w_CL_RMS
     QUANTITY: W-VELOCITY
     Coordinates (X,Y,Z):    1.000000E-03    1.000000E-03    5.100000E-01
     TEMPORAL STATISTIC: RMS
 282 ID: w_CL_RMS
     QUANTITY: W-VELOCITY
     Coordinates (X,Y,Z):    1.000000E-03    1.000000E-03    5.300000E-01
     TEMPORAL STATISTIC: RMS
 283 ID: w_CL_RMS
     QUANTITY: W-VELOCITY
     Coordinates (X,Y,Z):    1.000000E-03    1.000000E-03    5.500000E-01
     TEMPORAL STATISTIC: RMS
 284 ID: w_CL_RMS
     QUANTITY: W-VELOCITY
     Coordinates (X,Y,Z):    1.000000E-03    1.000000E-03    5.700000E-01
     TEMPORAL STATISTIC: RMS
 285 ID: w_CL_RMS
     QUANTITY: W-VELOCITY
     Coordinates (X,Y,Z):    1.000000E-03    1.000000E-03    5.900000E-01
     TEMPORAL STATISTIC: RMS
 286 ID: w_CL_RMS
     QUANTITY: W-VELOCITY
     Coordinates (X,Y,Z):    1.000000E-03    1.000000E-03    6.100000E-01
     TEMPORAL STATISTIC: RMS
 287 ID: w_CL_RMS
     QUANTITY: W-VELOCITY
     Coordinates (X,Y,Z):    1.000000E-03    1.000000E-03    6.300000E-01
     TEMPORAL STATISTIC: RMS
 288 ID: w_CL_RMS
     QUANTITY: W-VELOCITY
     Coordinates (X,Y,Z):    1.000000E-03    1.000000E-03    6.500000E-01
     TEMPORAL STATISTIC: RMS
 289 ID: w_CL_RMS
     QUANTITY: W-VELOCITY
     Coordinates (X,Y,Z):    1.000000E-03    1.000000E-03    6.700000E-01
     TEMPORAL STATISTIC: RMS
 290 ID: w_CL_RMS
     QUANTITY: W-VELOCITY
     Coordinates (X,Y,Z):    1.000000E-03    1.000000E-03    6.900000E-01
     TEMPORAL STATISTIC: RMS
 291 ID: w_CL_RMS
     QUANTITY: W-VELOCITY
     Coordinates (X,Y,Z):    1.000000E-03    1.000000E-03    7.100000E-01
     TEMPORAL STATISTIC: RMS
 292 ID: w_CL_RMS
     QUANTITY: W-VELOCITY
     Coordinates (X,Y,Z):    1.000000E-03    1.000000E-03    7.300000E-01
     TEMPORAL STATISTIC: RMS
 293 ID: w_CL_RMS
     QUANTITY: W-VELOCITY
     Coordinates (X,Y,Z):    1.000000E-03    1.000000E-03    7.500000E-01
     TEMPORAL STATISTIC: RMS
 294 ID: w_CL_RMS
     QUANTITY: W-VELOCITY
     Coordinates (X,Y,Z):    1.000000E-03    1.000000E-03    7.700000E-01
     TEMPORAL STATISTIC: RMS
 295 ID: w_CL_RMS
     QUANTITY: W-VELOCITY
     Coordinates (X,Y,Z):    1.000000E-03    1.000000E-03    7.900000E-01
     TEMPORAL STATISTIC: RMS
 296 ID: w_CL_RMS
     QUANTITY: W-VELOCITY
     Coordinates (X,Y,Z):    1.000000E-03    1.000000E-03    8.100000E-01
     TEMPORAL STATISTIC: RMS
 297 ID: w_CL_RMS
     QUANTITY: W-VELOCITY
     Coordinates (X,Y,Z):    1.000000E-03    1.000000E-03    8.300000E-01
     TEMPORAL STATISTIC: RMS
 298 ID: w_CL_RMS
     QUANTITY: W-VELOCITY
     Coordinates (X,Y,Z):    1.000000E-03    1.000000E-03    8.500000E-01
     TEMPORAL STATISTIC: RMS
 299 ID: w_CL_RMS
     QUANTITY: W-VELOCITY
     Coordinates (X,Y,Z):    1.000000E-03    1.000000E-03    8.700000E-01
     TEMPORAL STATISTIC: RMS
 300 ID: w_CL_RMS
     QUANTITY: W-VELOCITY
     Coordinates (X,Y,Z):    1.000000E-03    1.000000E-03    8.900000E-01
     TEMPORAL STATISTIC: RMS
 301 ID: w_CL_RMS
     QUANTITY: W-VELOCITY
     Coordinates (X,Y,Z):    1.000000E-03    1.000000E-03    9.100000E-01
     TEMPORAL STATISTIC: RMS
 302 ID: w_CL_RMS
     QUANTITY: W-VELOCITY
     Coordinates (X,Y,Z):    1.000000E-03    1.000000E-03    9.300000E-01
     TEMPORAL STATISTIC: RMS
 303 ID: w_CL_RMS
     QUANTITY: W-VELOCITY
     Coordinates (X,Y,Z):    1.000000E-03    1.000000E-03    9.500000E-01
     TEMPORAL STATISTIC: RMS
 304 ID: w_CL_RMS
     QUANTITY: W-VELOCITY
     Coordinates (X,Y,Z):    1.000000E-03    1.000000E-03    9.700000E-01
     TEMPORAL STATISTIC: RMS
 305 ID: w_CL_RMS
     QUANTITY: W-VELOCITY
     Coordinates (X,Y,Z):    1.000000E-03    1.000000E-03    9.900000E-01
     TEMPORAL STATISTIC: RMS
 306 ID: X_O2
     QUANTITY: VOLUME FRACTION
     Species ID: OXYGEN
     Coordinates (X,Y,Z):    1.000000E-03    1.000000E-03    1.000000E-02
     TEMPORAL STATISTIC: RUNNING AVERAGE
 307 ID: X_O2
     QUANTITY: VOLUME FRACTION
     Species ID: OXYGEN
     Coordinates (X,Y,Z):    1.000000E-03    1.000000E-03    3.000000E-02
     TEMPORAL STATISTIC: RUNNING AVERAGE
 308 ID: X_O2
     QUANTITY: VOLUME FRACTION
     Species ID: OXYGEN
     Coordinates (X,Y,Z):    1.000000E-03    1.000000E-03    5.000000E-02
     TEMPORAL STATISTIC: RUNNING AVERAGE
 309 ID: X_O2
     QUANTITY: VOLUME FRACTION
     Species ID: OXYGEN
     Coordinates (X,Y,Z):    1.000000E-03    1.000000E-03    7.000000E-02
     TEMPORAL STATISTIC: RUNNING AVERAGE
 310 ID: X_O2
     QUANTITY: VOLUME FRACTION
     Species ID: OXYGEN
     Coordinates (X,Y,Z):    1.000000E-03    1.000000E-03    9.000000E-02
     TEMPORAL STATISTIC: RUNNING AVERAGE
 311 ID: X_O2
     QUANTITY: VOLUME FRACTION
     Species ID: OXYGEN
     Coordinates (X,Y,Z):    1.000000E-03    1.000000E-03    1.100000E-01
     TEMPORAL STATISTIC: RUNNING AVERAGE
 312 ID: X_O2
     QUANTITY: VOLUME FRACTION
     Species ID: OXYGEN
     Coordinates (X,Y,Z):    1.000000E-03    1.000000E-03    1.300000E-01
     TEMPORAL STATISTIC: RUNNING AVERAGE
 313 ID: X_O2
     QUANTITY: VOLUME FRACTION
     Species ID: OXYGEN
     Coordinates (X,Y,Z):    1.000000E-03    1.000000E-03    1.500000E-01
     TEMPORAL STATISTIC: RUNNING AVERAGE
 314 ID: X_O2
     QUANTITY: VOLUME FRACTION
     Species ID: OXYGEN
     Coordinates (X,Y,Z):    1.000000E-03    1.000000E-03    1.700000E-01
     TEMPORAL STATISTIC: RUNNING AVERAGE
 315 ID: X_O2
     QUANTITY: VOLUME FRACTION
     Species ID: OXYGEN
     Coordinates (X,Y,Z):    1.000000E-03    1.000000E-03    1.900000E-01
     TEMPORAL STATISTIC: RUNNING AVERAGE
 316 ID: X_O2
     QUANTITY: VOLUME FRACTION
     Species ID: OXYGEN
     Coordinates (X,Y,Z):    1.000000E-03    1.000000E-03    2.100000E-01
     TEMPORAL STATISTIC: RUNNING AVERAGE
 317 ID: X_O2
     QUANTITY: VOLUME FRACTION
     Species ID: OXYGEN
     Coordinates (X,Y,Z):    1.000000E-03    1.000000E-03    2.300000E-01
     TEMPORAL STATISTIC: RUNNING AVERAGE
 318 ID: X_O2
     QUANTITY: VOLUME FRACTION
     Species ID: OXYGEN
     Coordinates (X,Y,Z):    1.000000E-03    1.000000E-03    2.500000E-01
     TEMPORAL STATISTIC: RUNNING AVERAGE
 319 ID: X_O2
     QUANTITY: VOLUME FRACTION
     Species ID: OXYGEN
     Coordinates (X,Y,Z):    1.000000E-03    1.000000E-03    2.700000E-01
     TEMPORAL STATISTIC: RUNNING AVERAGE
 320 ID: X_O2
     QUANTITY: VOLUME FRACTION
     Species ID: OXYGEN
     Coordinates (X,Y,Z):    1.000000E-03    1.000000E-03    2.900000E-01
     TEMPORAL STATISTIC: RUNNING AVERAGE
 321 ID: X_O2
     QUANTITY: VOLUME FRACTION
     Species ID: OXYGEN
     Coordinates (X,Y,Z):    1.000000E-03    1.000000E-03    3.100000E-01
     TEMPORAL STATISTIC: RUNNING AVERAGE
 322 ID: X_O2
     QUANTITY: VOLUME FRACTION
     Species ID: OXYGEN
     Coordinates (X,Y,Z):    1.000000E-03    1.000000E-03    3.300000E-01
     TEMPORAL STATISTIC: RUNNING AVERAGE
 323 ID: X_O2
     QUANTITY: VOLUME FRACTION
     Species ID: OXYGEN
     Coordinates (X,Y,Z):    1.000000E-03    1.000000E-03    3.500000E-01
     TEMPORAL STATISTIC: RUNNING AVERAGE
 324 ID: X_O2
     QUANTITY: VOLUME FRACTION
     Species ID: OXYGEN
     Coordinates (X,Y,Z):    1.000000E-03    1.000000E-03    3.700000E-01
     TEMPORAL STATISTIC: RUNNING AVERAGE
 325 ID: X_O2
     QUANTITY: VOLUME FRACTION
     Species ID: OXYGEN
     Coordinates (X,Y,Z):    1.000000E-03    1.000000E-03    3.900000E-01
     TEMPORAL STATISTIC: RUNNING AVERAGE
 326 ID: X_O2
     QUANTITY: VOLUME FRACTION
     Species ID: OXYGEN
     Coordinates (X,Y,Z):    1.000000E-03    1.000000E-03    4.100000E-01
     TEMPORAL STATISTIC: RUNNING AVERAGE
 327 ID: X_O2
     QUANTITY: VOLUME FRACTION
     Species ID: OXYGEN
     Coordinates (X,Y,Z):    1.000000E-03    1.000000E-03    4.300000E-01
     TEMPORAL STATISTIC: RUNNING AVERAGE
 328 ID: X_O2
     QUANTITY: VOLUME FRACTION
     Species ID: OXYGEN
     Coordinates (X,Y,Z):    1.000000E-03    1.000000E-03    4.500000E-01
     TEMPORAL STATISTIC: RUNNING AVERAGE
 329 ID: X_O2
     QUANTITY: VOLUME FRACTION
     Species ID: OXYGEN
     Coordinates (X,Y,Z):    1.000000E-03    1.000000E-03    4.700000E-01
     TEMPORAL STATISTIC: RUNNING AVERAGE
 330 ID: X_O2
     QUANTITY: VOLUME FRACTION
     Species ID: OXYGEN
     Coordinates (X,Y,Z):    1.000000E-03    1.000000E-03    4.900000E-01
     TEMPORAL STATISTIC: RUNNING AVERAGE
 331 ID: X_O2
     QUANTITY: VOLUME FRACTION
     Species ID: OXYGEN
     Coordinates (X,Y,Z):    1.000000E-03    1.000000E-03    5.100000E-01
     TEMPORAL STATISTIC: RUNNING AVERAGE
 332 ID: X_O2
     QUANTITY: VOLUME FRACTION
     Species ID: OXYGEN
     Coordinates (X,Y,Z):    1.000000E-03    1.000000E-03    5.300000E-01
     TEMPORAL STATISTIC: RUNNING AVERAGE
 333 ID: X_O2
     QUANTITY: VOLUME FRACTION
     Species ID: OXYGEN
     Coordinates (X,Y,Z):    1.000000E-03    1.000000E-03    5.500000E-01
     TEMPORAL STATISTIC: RUNNING AVERAGE
 334 ID: X_O2
     QUANTITY: VOLUME FRACTION
     Species ID: OXYGEN
     Coordinates (X,Y,Z):    1.000000E-03    1.000000E-03    5.700000E-01
     TEMPORAL STATISTIC: RUNNING AVERAGE
 335 ID: X_O2
     QUANTITY: VOLUME FRACTION
     Species ID: OXYGEN
     Coordinates (X,Y,Z):    1.000000E-03    1.000000E-03    5.900000E-01
     TEMPORAL STATISTIC: RUNNING AVERAGE
 336 ID: X_O2
     QUANTITY: VOLUME FRACTION
     Species ID: OXYGEN
     Coordinates (X,Y,Z):    1.000000E-03    1.000000E-03    6.100000E-01
     TEMPORAL STATISTIC: RUNNING AVERAGE
 337 ID: X_O2
     QUANTITY: VOLUME FRACTION
     Species ID: OXYGEN
     Coordinates (X,Y,Z):    1.000000E-03    1.000000E-03    6.300000E-01
     TEMPORAL STATISTIC: RUNNING AVERAGE
 338 ID: X_O2
     QUANTITY: VOLUME FRACTION
     Species ID: OXYGEN
     Coordinates (X,Y,Z):    1.000000E-03    1.000000E-03    6.500000E-01
     TEMPORAL STATISTIC: RUNNING AVERAGE
 339 ID: X_O2
     QUANTITY: VOLUME FRACTION
     Species ID: OXYGEN
     Coordinates (X,Y,Z):    1.000000E-03    1.000000E-03    6.700000E-01
     TEMPORAL STATISTIC: RUNNING AVERAGE
 340 ID: X_O2
     QUANTITY: VOLUME FRACTION
     Species ID: OXYGEN
     Coordinates (X,Y,Z):    1.000000E-03    1.000000E-03    6.900000E-01
     TEMPORAL STATISTIC: RUNNING AVERAGE
 341 ID: X_O2
     QUANTITY: VOLUME FRACTION
     Species ID: OXYGEN
     Coordinates (X,Y,Z):    1.000000E-03    1.000000E-03    7.100000E-01
     TEMPORAL STATISTIC: RUNNING AVERAGE
 342 ID: X_O2
     QUANTITY: VOLUME FRACTION
     Species ID: OXYGEN
     Coordinates (X,Y,Z):    1.000000E-03    1.000000E-03    7.300000E-01
[...]
       Total Heat Release Rate:              0.699 kW
       Radiation Loss to Boundaries:        -0.475 kW
 
       Time Step   31100   August 17, 2023  20:49:42
       Step Size:    0.150E-02 s, Total Time:      59.13 s
       Pressure Iterations: 6
       Maximum Velocity Error:  0.93E-02 on Mesh 4 at (0,1,34)
       Maximum Pressure Error:  0.70E+04 on Mesh 7 at (30,1,8)
       ---------------------------------------------------------------
       Mesh    1
       Max CFL number:  0.59E+00 at (30,30,44)
       Max divergence:  0.26E+02 at (31,32,24)
       Min divergence: -0.81E+01 at (30,30,45)
       Max VN number:   0.14E+00 at (30,32,43)
       Total Heat Release Rate:              8.776 kW
       Radiation Loss to Boundaries:        -2.739 kW
       Mesh    2
       Max CFL number:  0.57E+00 at (1,31,48)
       Max divergence:  0.30E+02 at (1,30,36)
       Min divergence: -0.62E+01 at (2,32,37)
       Max VN number:   0.10E+00 at (1,30,39)
       Total Heat Release Rate:             10.180 kW
       Radiation Loss to Boundaries:        -2.788 kW
       Mesh    3
       Max CFL number:  0.63E+00 at (30,2,48)
       Max divergence:  0.26E+02 at (31,3,43)
       Min divergence: -0.13E+02 at (31,6,45)
       Max VN number:   0.12E+00 at (32,5,48)
       Total Heat Release Rate:             14.474 kW
       Radiation Loss to Boundaries:        -4.522 kW
       Mesh    4
       Max CFL number:  0.57E+00 at (2,2,43)
       Max divergence:  0.31E+02 at (1,3,29)
       Min divergence: -0.76E+01 at (1,3,39)
       Max VN number:   0.13E+00 at (1,5,44)
       Total Heat Release Rate:             12.666 kW
       Radiation Loss to Boundaries:        -3.825 kW
       Mesh    5
       Max CFL number:  0.73E+00 at (32,24,31)
       Max divergence:  0.24E+02 at (32,32,7)
       Min divergence: -0.60E+01 at (32,32,10)
       Max VN number:   0.14E+00 at (32,32,10)
       Total Heat Release Rate:              1.607 kW
       Radiation Loss to Boundaries:        -0.519 kW
       Mesh    6
       Max CFL number:  0.71E+00 at (3,32,9)
       Max divergence:  0.23E+02 at (2,32,8)
       Min divergence: -0.85E+01 at (2,30,10)
       Max VN number:   0.12E+00 at (3,32,7)
       Total Heat Release Rate:              2.315 kW
       Radiation Loss to Boundaries:        -1.208 kW
       Mesh    7
       Max CFL number:  0.77E+00 at (30,1,6)
       Max divergence:  0.27E+02 at (31,2,5)
       Min divergence: -0.66E+01 at (30,1,8)
       Max VN number:   0.17E+00 at (30,1,7)
       Total Heat Release Rate:              3.245 kW
       Radiation Loss to Boundaries:        -0.987 kW
       Mesh    8
       Max CFL number:  0.86E+00 at (3,3,9)
       Max divergence:  0.36E+02 at (1,1,7)
       Min divergence: -0.15E+02 at (4,3,18)
       Max VN number:   0.13E+00 at (4,2,20)
       Total Heat Release Rate:              2.861 kW
       Radiation Loss to Boundaries:        -1.237 kW
 
       Time Step   31200   August 17, 2023  20:50:54
       Step Size:    0.127E-02 s, Total Time:      59.28 s
       Pressure Iterations: 7
       Maximum Velocity Error:  0.68E-02 on Mesh 7 at (32,2,30)
       Maximum Pressure Error:  0.60E+04 on Mesh 7 at (31,4,36)
       ---------------------------------------------------------------
       Mesh    1
       Max CFL number:  0.49E+00 at (32,30,48)
       Max divergence:  0.22E+02 at (31,31,24)
       Min divergence: -0.66E+01 at (31,28,14)
       Max VN number:   0.75E-01 at (30,28,48)
       Total Heat Release Rate:              8.107 kW
       Radiation Loss to Boundaries:        -1.824 kW
       Mesh    2
       Max CFL number:  0.49E+00 at (1,31,47)
       Max divergence:  0.21E+02 at (1,29,16)
       Min divergence: -0.42E+01 at (3,29,14)
       Max VN number:   0.90E-01 at (2,32,45)
       Total Heat Release Rate:              8.687 kW
       Radiation Loss to Boundaries:        -1.913 kW
       Mesh    3
       Max CFL number:  0.47E+00 at (30,3,42)
       Max divergence:  0.23E+02 at (32,5,16)
       Min divergence: -0.91E+01 at (31,3,47)
       Max VN number:   0.12E+00 at (30,2,47)
       Total Heat Release Rate:             12.488 kW
       Radiation Loss to Boundaries:        -2.985 kW
       Mesh    4
       Max CFL number:  0.49E+00 at (1,3,47)
       Max divergence:  0.37E+02 at (2,4,19)
       Min divergence: -0.73E+01 at (3,4,26)
       Max VN number:   0.11E+00 at (1,3,47)
       Total Heat Release Rate:             10.557 kW
       Radiation Loss to Boundaries:        -2.252 kW
       Mesh    5
       Max CFL number:  0.80E+00 at (30,32,23)
       Max divergence:  0.13E+02 at (32,29,7)
       Min divergence: -0.82E+01 at (32,31,9)
       Max VN number:   0.13E+00 at (29,32,23)
       Total Heat Release Rate:              1.271 kW
       Radiation Loss to Boundaries:        -0.894 kW
       Mesh    6
       Max CFL number:  0.78E+00 at (2,31,33)
       Max divergence:  0.10E+02 at (4,32,37)
       Min divergence: -0.79E+01 at (7,32,40)
       Max VN number:   0.10E+00 at (2,32,35)
       Total Heat Release Rate:              2.692 kW
       Radiation Loss to Boundaries:        -1.813 kW
       Mesh    7
       Max CFL number:  0.84E+00 at (32,2,23)
       Max divergence:  0.15E+02 at (32,2,36)
       Min divergence: -0.12E+02 at (31,4,35)
       Max VN number:   0.14E+00 at (31,4,35)
       Total Heat Release Rate:              1.193 kW
       Radiation Loss to Boundaries:        -1.090 kW
       Mesh    8
       Max CFL number:  0.92E+00 at (1,2,33)
       Max divergence:  0.16E+02 at (1,2,35)
       Min divergence: -0.11E+02 at (5,2,37)
       Max VN number:   0.12E+00 at (1,4,25)
       Total Heat Release Rate:              1.482 kW
       Radiation Loss to Boundaries:        -1.394 kW
 
       Time Step   31300   August 17, 2023  20:52:07
       Step Size:    0.151E-02 s, Total Time:      59.42 s
       Pressure Iterations: 5
       Maximum Velocity Error:  0.10E-01 on Mesh 3 at (32,4,28)
       Maximum Pressure Error:  0.47E+04 on Mesh 7 at (31,2,11)
       ---------------------------------------------------------------
       Mesh    1
       Max CFL number:  0.56E+00 at (32,32,48)
       Max divergence:  0.26E+02 at (31,32,34)
       Min divergence: -0.78E+01 at (28,32,31)
       Max VN number:   0.10E+00 at (31,29,37)
       Total Heat Release Rate:              9.543 kW
       Radiation Loss to Boundaries:        -2.995 kW
       Mesh    2
       Max CFL number:  0.62E+00 at (2,31,41)
       Max divergence:  0.33E+02 at (3,32,32)
       Min divergence: -0.89E+01 at (4,30,42)
       Max VN number:   0.15E+00 at (2,31,46)
       Total Heat Release Rate:             11.235 kW
       Radiation Loss to Boundaries:        -3.044 kW
       Mesh    3
       Max CFL number:  0.63E+00 at (31,2,48)
       Max divergence:  0.32E+02 at (31,4,30)
       Min divergence: -0.79E+01 at (32,3,38)
       Max VN number:   0.92E-01 at (29,1,30)
       Total Heat Release Rate:             13.904 kW
       Radiation Loss to Boundaries:        -3.501 kW
       Mesh    4
       Max CFL number:  0.53E+00 at (1,1,48)
       Max divergence:  0.27E+02 at (1,4,22)
       Min divergence: -0.85E+01 at (3,3,37)
       Max VN number:   0.84E-01 at (3,3,36)
       Total Heat Release Rate:             12.995 kW
       Radiation Loss to Boundaries:        -3.893 kW
       Mesh    5
       Max CFL number:  0.71E+00 at (30,32,6)
       Max divergence:  0.19E+02 at (30,32,9)
       Min divergence: -0.91E+01 at (32,31,27)
       Max VN number:   0.15E+00 at (30,32,9)
       Total Heat Release Rate:              0.703 kW
       Radiation Loss to Boundaries:        -0.273 kW
       Mesh    6
       Max CFL number:  0.66E+00 at (1,32,46)
       Max divergence:  0.75E+01 at (1,31,1)
       Min divergence: -0.89E+01 at (1,32,25)
       Max VN number:   0.11E+00 at (1,30,41)
       Total Heat Release Rate:              0.190 kW
       Radiation Loss to Boundaries:        -0.014 kW
       Mesh    7
       Max CFL number:  0.82E+00 at (32,2,10)
       Max divergence:  0.19E+02 at (31,2,12)
       Min divergence: -0.19E+02 at (31,1,11)
       Max VN number:   0.18E+00 at (31,2,11)
       Total Heat Release Rate:              3.073 kW
       Radiation Loss to Boundaries:        -1.752 kW
       Mesh    8
       Max CFL number:  0.77E+00 at (2,4,46)
       Max divergence:  0.13E+02 at (2,2,22)
       Min divergence: -0.11E+02 at (1,1,21)
       Max VN number:   0.14E+00 at (1,3,22)
       Total Heat Release Rate:              0.937 kW
       Radiation Loss to Boundaries:        -0.725 kW
 
       Time Step   31400   August 17, 2023  20:53:16
       Step Size:    0.166E-02 s, Total Time:      59.57 s
       Pressure Iterations: 7
       Maximum Velocity Error:  0.95E-02 on Mesh 5 at (32,32,0)
       Maximum Pressure Error:  0.69E+04 on Mesh 5 at (30,31,7)
       ---------------------------------------------------------------
       Mesh    1
       Max CFL number:  0.71E+00 at (32,32,44)
       Max divergence:  0.29E+02 at (32,31,25)
       Min divergence: -0.39E+01 at (29,31,14)
       Max VN number:   0.86E-01 at (32,31,45)
       Total Heat Release Rate:              8.207 kW
       Radiation Loss to Boundaries:        -1.957 kW
       Mesh    2
       Max CFL number:  0.82E+00 at (2,32,47)
       Max divergence:  0.32E+02 at (1,31,25)
       Min divergence: -0.59E+01 at (5,31,14)
       Max VN number:   0.12E+00 at (2,32,46)
       Total Heat Release Rate:              9.097 kW
       Radiation Loss to Boundaries:        -2.330 kW
       Mesh    3
       Max CFL number:  0.70E+00 at (32,3,44)
       Max divergence:  0.25E+02 at (32,2,32)
       Min divergence: -0.67E+01 at (28,4,46)
       Max VN number:   0.11E+00 at (29,2,48)
       Total Heat Release Rate:             10.662 kW
       Radiation Loss to Boundaries:        -2.629 kW
       Mesh    4
       Max CFL number:  0.74E+00 at (2,4,46)
       Max divergence:  0.25E+02 at (5,6,14)
       Min divergence: -0.84E+01 at (7,3,48)
       Max VN number:   0.13E+00 at (3,4,46)
       Total Heat Release Rate:             12.187 kW
       Radiation Loss to Boundaries:        -3.387 kW
       Mesh    5
       Max CFL number:  0.84E+00 at (30,32,7)
       Max divergence:  0.25E+02 at (31,32,2)
       Min divergence: -0.86E+01 at (29,31,25)
       Max VN number:   0.21E+00 at (30,32,25)
       Total Heat Release Rate:              5.476 kW
       Radiation Loss to Boundaries:        -2.817 kW
       Mesh    6
       Max CFL number:  0.81E+00 at (2,32,8)
       Max divergence:  0.42E+02 at (1,32,12)
       Min divergence: -0.81E+01 at (4,30,15)
       Max VN number:   0.28E+00 at (1,32,11)
       Total Heat Release Rate:              3.204 kW
       Radiation Loss to Boundaries:        -1.202 kW
       Mesh    7
       Max CFL number:  0.83E+00 at (31,1,16)
       Max divergence:  0.20E+02 at (31,3,3)
       Min divergence: -0.11E+02 at (31,1,31)
       Max VN number:   0.15E+00 at (29,2,30)
       Total Heat Release Rate:              5.467 kW
       Radiation Loss to Boundaries:        -2.576 kW
       Mesh    8
       Max CFL number:  0.78E+00 at (1,2,47)
       Max divergence:  0.28E+02 at (1,2,4)
       Min divergence: -0.10E+02 at (3,4,2)
       Max VN number:   0.16E+00 at (1,1,15)
       Total Heat Release Rate:              2.839 kW
       Radiation Loss to Boundaries:        -1.000 kW
 
       Time Step   31500   August 17, 2023  20:54:27
       Step Size:    0.142E-02 s, Total Time:      59.72 s
       Pressure Iterations: 6
       Maximum Velocity Error:  0.74E-02 on Mesh 5 at (32,32,30)
       Maximum Pressure Error:  0.67E+04 on Mesh 7 at (31,2,32)
       ---------------------------------------------------------------
       Mesh    1
       Max CFL number:  0.47E+00 at (32,32,48)
       Max divergence:  0.23E+02 at (31,32,29)
       Min divergence: -0.76E+01 at (32,32,47)
       Max VN number:   0.97E-01 at (30,32,43)
       Total Heat Release Rate:              9.414 kW
       Radiation Loss to Boundaries:        -2.844 kW
       Mesh    2
       Max CFL number:  0.46E+00 at (3,32,33)
       Max divergence:  0.24E+02 at (2,32,35)
       Min divergence: -0.89E+01 at (2,30,32)
       Max VN number:   0.88E-01 at (2,29,32)
       Total Heat Release Rate:              8.919 kW
       Radiation Loss to Boundaries:        -2.674 kW
       Mesh    3
       Max CFL number:  0.47E+00 at (32,3,47)
       Max divergence:  0.26E+02 at (32,3,19)
       Min divergence: -0.60E+01 at (30,3,32)
       Max VN number:   0.83E-01 at (30,1,31)
       Total Heat Release Rate:              9.451 kW
       Radiation Loss to Boundaries:        -2.782 kW
       Mesh    4
       Max CFL number:  0.51E+00 at (2,1,48)
       Max divergence:  0.37E+02 at (1,3,25)
       Min divergence: -0.36E+01 at (3,5,44)
       Max VN number:   0.72E-01 at (3,6,48)
       Total Heat Release Rate:             10.346 kW
       Radiation Loss to Boundaries:        -3.349 kW
       Mesh    5
       Max CFL number:  0.85E+00 at (28,32,44)
       Max divergence:  0.14E+02 at (28,30,44)
       Min divergence: -0.19E+02 at (30,29,44)
       Max VN number:   0.20E+00 at (28,31,44)
       Total Heat Release Rate:              0.042 kW
       Radiation Loss to Boundaries:         0.013 kW
       Mesh    6
       Max CFL number:  0.74E+00 at (2,32,23)
       Max divergence:  0.84E+01 at (5,32,6)
       Min divergence: -0.82E+01 at (4,32,6)
       Max VN number:   0.12E+00 at (3,32,10)
       Total Heat Release Rate:              0.103 kW
       Radiation Loss to Boundaries:        -0.069 kW
       Mesh    7
       Max CFL number:  0.82E+00 at (31,2,26)
       Max divergence:  0.80E+01 at (31,1,34)
       Min divergence: -0.12E+02 at (32,5,27)
       Max VN number:   0.14E+00 at (32,5,27)
       Total Heat Release Rate:              0.095 kW
       Radiation Loss to Boundaries:        -0.047 kW
       Mesh    8
       Max CFL number:  0.74E+00 at (1,2,23)
       Max divergence:  0.14E+02 at (2,1,23)
       Min divergence: -0.88E+01 at (3,3,20)
       Max VN number:   0.13E+00 at (3,3,19)
       Total Heat Release Rate:              0.501 kW
       Radiation Loss to Boundaries:        -0.352 kW
 
       Time Step   31600   August 17, 2023  20:55:37
       Step Size:    0.166E-02 s, Total Time:      59.88 s
       Pressure Iterations: 6
       Maximum Velocity Error:  0.92E-02 on Mesh 2 at (4,31,48)
       Maximum Pressure Error:  0.73E+04 on Mesh 7 at (31,4,16)
       ---------------------------------------------------------------
       Mesh    1
       Max CFL number:  0.73E+00 at (32,28,43)
       Max divergence:  0.26E+02 at (32,32,44)
       Min divergence: -0.90E+01 at (31,27,47)
       Max VN number:   0.16E+00 at (32,27,47)
       Total Heat Release Rate:             10.775 kW
       Radiation Loss to Boundaries:        -3.217 kW
       Mesh    2
       Max CFL number:  0.81E+00 at (3,31,44)
       Max divergence:  0.30E+02 at (3,31,44)
       Min divergence: -0.57E+01 at (5,30,48)
       Max VN number:   0.13E+00 at (2,27,46)
       Total Heat Release Rate:             14.160 kW
       Radiation Loss to Boundaries:        -4.316 kW
       Mesh    3
       Max CFL number:  0.63E+00 at (32,2,45)
       Max divergence:  0.23E+02 at (32,1,41)
       Min divergence: -0.68E+01 at (28,3,38)
       Max VN number:   0.14E+00 at (30,1,39)
       Total Heat Release Rate:             10.434 kW
       Radiation Loss to Boundaries:        -2.682 kW
       Mesh    4
       Max CFL number:  0.60E+00 at (1,1,44)
       Max divergence:  0.41E+02 at (2,1,38)
       Min divergence: -0.70E+01 at (1,5,36)
       Max VN number:   0.11E+00 at (3,2,34)
       Total Heat Release Rate:             11.506 kW
       Radiation Loss to Boundaries:        -2.833 kW
       Mesh    5
       Max CFL number:  0.81E+00 at (31,30,3)
       Max divergence:  0.19E+02 at (32,32,9)
       Min divergence: -0.13E+02 at (29,31,12)
       Max VN number:   0.13E+00 at (32,31,22)
       Total Heat Release Rate:              3.626 kW
       Radiation Loss to Boundaries:        -2.006 kW
       Mesh    6
       Max CFL number:  0.85E+00 at (4,30,2)
       Max divergence:  0.24E+02 at (2,31,5)
       Min divergence: -0.11E+02 at (3,30,12)
       Max VN number:   0.20E+00 at (4,30,2)
       Total Heat Release Rate:              5.035 kW
       Radiation Loss to Boundaries:        -1.812 kW
       Mesh    7
       Max CFL number:  0.82E+00 at (31,4,10)
       Max divergence:  0.24E+02 at (32,1,9)
       Min divergence: -0.13E+02 at (32,3,20)
       Max VN number:   0.17E+00 at (31,4,15)
       Total Heat Release Rate:              4.470 kW
       Radiation Loss to Boundaries:        -1.981 kW
       Mesh    8
       Max CFL number:  0.79E+00 at (5,3,33)
       Max divergence:  0.21E+02 at (2,2,10)
       Min divergence: -0.78E+01 at (3,1,12)
       Max VN number:   0.13E+00 at (3,1,12)
       Total Heat Release Rate:              4.346 kW
       Radiation Loss to Boundaries:        -1.581 kW
 
       Time Step   31681   August 17, 2023  20:56:32
       Step Size:    0.759E-03 s, Total Time:      60.00 s
       Pressure Iterations: 4
       Maximum Velocity Error:  0.77E-02 on Mesh 3 at (31,0,28)
       Maximum Pressure Error:  0.30E+04 on Mesh 6 at (5,27,16)
       ---------------------------------------------------------------
       Mesh    1
       Max CFL number:  0.27E+00 at (30,32,38)
       Max divergence:  0.33E+02 at (32,32,38)
       Min divergence: -0.61E+01 at (32,30,21)
       Max VN number:   0.42E-01 at (29,32,40)
       Total Heat Release Rate:              7.712 kW
       Radiation Loss to Boundaries:        -1.888 kW
       Mesh    2
       Max CFL number:  0.30E+00 at (2,32,44)
       Max divergence:  0.27E+02 at (1,32,39)
       Min divergence: -0.43E+01 at (3,29,14)
       Max VN number:   0.50E-01 at (2,32,44)
       Total Heat Release Rate:              7.517 kW
       Radiation Loss to Boundaries:        -1.865 kW
       Mesh    3
       Max CFL number:  0.28E+00 at (32,2,44)
       Max divergence:  0.21E+02 at (32,3,30)
       Min divergence: -0.53E+01 at (31,2,25)
       Max VN number:   0.51E-01 at (30,1,40)
       Total Heat Release Rate:              9.799 kW
       Radiation Loss to Boundaries:        -2.596 kW
       Mesh    4
       Max CFL number:  0.35E+00 at (2,3,44)
       Max divergence:  0.24E+02 at (1,4,19)
       Min divergence: -0.58E+01 at (2,1,26)
       Max VN number:   0.66E-01 at (2,5,47)
       Total Heat Release Rate:             13.876 kW
       Radiation Loss to Boundaries:        -3.938 kW
       Mesh    5
       Max CFL number:  0.43E+00 at (31,32,12)
       Max divergence:  0.83E+01 at (32,26,12)
       Min divergence: -0.58E+01 at (30,27,14)
       Max VN number:   0.55E-01 at (30,25,9)
       Total Heat Release Rate:              0.238 kW
       Radiation Loss to Boundaries:        -0.158 kW
       Mesh    6
       Max CFL number:  0.46E+00 at (4,28,14)
       Max divergence:  0.16E+02 at (6,27,16)
       Min divergence: -0.13E+02 at (1,27,14)
       Max VN number:   0.79E-01 at (2,30,15)
       Total Heat Release Rate:              0.752 kW
       Radiation Loss to Boundaries:        -0.498 kW
       Mesh    7
       Max CFL number:  0.38E+00 at (30,1,15)
       Max divergence:  0.13E+02 at (32,2,35)
       Min divergence: -0.69E+01 at (31,2,8)
       Max VN number:   0.57E-01 at (30,1,14)
       Total Heat Release Rate:              1.036 kW
       Radiation Loss to Boundaries:        -0.690 kW
       Mesh    8
       Max CFL number:  0.42E+00 at (3,3,27)
       Max divergence:  0.24E+02 at (2,2,3)
       Min divergence: -0.14E+02 at (3,4,2)
       Max VN number:   0.75E-01 at (3,4,27)
       Total Heat Release Rate:              1.756 kW
       Radiation Loss to Boundaries:        -1.131 kW
 


 Time Stepping Wall Clock Time (s):    21793.693
 Total Elapsed Wall Clock Time (s):    21815.084

STOP: FDS completed successfully (CHID: NIST_Acetone_GEOM_Predicted_2cm_cat)
