
 Fire Dynamics Simulator

 Current Date     : August 18, 2023  10:49:02
 Revision         : FDS-6.8.0-564-g879930a-master
 Revision Date    : Wed Aug 16 13:01:02 2023 -0400
 Compiler         : ifort version 2021.7.1
 Compilation Date : Aug 16, 2023 16:23:58

 MPI Enabled;    Number of MPI Processes:      96
 OpenMP Disabled

 MPI version: 3.1
 MPI library version: Intel(R) MPI Library 2021.7 for Linux* OS


 Job TITLE        : (Concatenated) NIST Methane Fire, 37 cm diameter burner, 1 cm resolution
 Job ID string    : NIST_Methane_GEOM_Prescribed_1cm_cat


 Miscellaneous Parameters

   Simulation Start Time (s)          0.0
   Simulation End Time (s)           60.0
   Background Pressure (Pa)     101325.00
   Ambient Temperature (C)          16.00

   3D Cartesian
   LES Calculation
   Eddy Viscosity Model:  Deardorff (C_DEARDORFF = 0.10)
   Surface INERT Eddy Viscosity Model:  WALE (C_WALE = 0.60)
   Surface PAN Eddy Viscosity Model:  WALE (C_WALE = 0.60)
   Surface POOL Eddy Viscosity Model:  WALE (C_WALE = 0.60)
   Turbulent Prandtl Number:         0.50
   Turbulent Schmidt Number:         0.50


 Pressure solver information

   Solver:                          ULMAT
   Velocity tolerance (m/s):    5.000E-03
   Press eqn res tol (1/s^2):   2.000E+05
   Max pressure iterations:            10


 Mass Fraction Transformation Matrix to Convert Species Mixtures (Columns) to Primitive Species (Rows)

                         AIR       METHANE   INTERMED  PRODUCTS
   NITROGEN              0.764811  0.000000  0.683390  0.722828
   OXYGEN                0.231707  0.000000  0.000000  0.000000
   CARBON DIOXIDE        0.000593  0.000000  0.000530  0.151153
   WATER VAPOR           0.002889  0.000000  0.122133  0.126020
   CARBON MONOXIDE       0.000000  0.000000  0.176585  0.000000
   SOOT                  0.000000  0.000000  0.003985  0.000000
   HYDROGEN              0.000000  0.000000  0.013378  0.000000
   HYDROGEN CYANIDE      0.000000  0.000000  0.000000  0.000000
   METHANE               0.000000  1.000000  0.000000  0.000000


 Primitive Species Information

   NITROGEN
   Gas Species
   Molecular Weight (g/mol)                28.01340
   Ambient Density (kg/m^3)                1.181
           Enthalpy of Formation (J/kg)  0.000E+00

   OXYGEN
   Gas Species
   Molecular Weight (g/mol)                31.99880
   Ambient Density (kg/m^3)                1.349
           Enthalpy of Formation (J/kg)  0.000E+00

   CARBON DIOXIDE
   Gas Species
   Molecular Weight (g/mol)                44.00950
   Ambient Density (kg/m^3)                1.855
           Enthalpy of Formation (J/kg) -8.941E+06

   WATER VAPOR
   Gas Species
   Molecular Weight (g/mol)                18.01528
   Ambient Density (kg/m^3)                0.759
           Enthalpy of Formation (J/kg) -1.342E+07

   CARBON MONOXIDE
   Gas Species
   Molecular Weight (g/mol)                28.01010
   Ambient Density (kg/m^3)                1.181
           Enthalpy of Formation (J/kg) -3.946E+06

   SOOT
   Gas Species
   Molecular Weight (g/mol)                12.01070
   Ambient Density (kg/m^3)                0.506
           Enthalpy of Formation (J/kg)  0.000E+00

   HYDROGEN
   Gas Species
   Molecular Weight (g/mol)                 2.01588
   Ambient Density (kg/m^3)                0.085
           Enthalpy of Formation (J/kg)  0.000E+00

   HYDROGEN CYANIDE
   Gas Species
   Molecular Weight (g/mol)                27.02534
   Ambient Density (kg/m^3)                1.139
           Enthalpy of Formation (J/kg)  4.924E+06

   METHANE
   Gas Species
   Molecular Weight (g/mol)                16.04246
   Ambient Density (kg/m^3)                0.676
           Enthalpy of Formation (J/kg) -4.650E+06


 Tracked (Lumped) Species Information

   AIR
   Molecular Weight (g/mol)            28.80470
   Ambient Density (kg/m^3)            1.214
   Initial Mass Fraction               1.000
   Enthalpy of Formation (J/kg)     -4.408E+04

   Sub Species                    Mass Fraction     Mole Fraction
   NITROGEN                       7.648113E-01      7.864151E-01
   OXYGEN                         2.317067E-01      2.085779E-01
   CARBON DIOXIDE                 5.932813E-04      3.883091E-04
   WATER VAPOR                    2.888634E-03      4.618647E-03
 
     Viscosity (kg/m/s) Ambient,  289 K:  1.780E-05
                                  500 K:  2.616E-05
                                 1000 K:  4.127E-05
                                 1500 K:  5.372E-05
                                 2000 K:  6.475E-05
   Therm. Cond. (W/m/K) Ambient,  289 K:  2.532E-02
                                  500 K:  3.815E-02
                                 1000 K:  6.680E-02
                                 1500 K:  9.232E-02
                                 2000 K:  1.150E-01
        Enthalpy (J/kg) Ambient,  289 K: -5.320E+04
                                  500 K:  1.626E+05
                                 1000 K:  7.109E+05
                                 1500 K:  1.307E+06
                                 2000 K:  1.930E+06
    Spec. Heat (J/kg/K) Ambient,  289 K:  1.013E+03
                                  500 K:  1.039E+03
                                 1000 K:  1.153E+03
                                 1500 K:  1.224E+03
                                 2000 K:  1.265E+03
   Diff. Coeff. (m^2/s) Ambient,  289 K:  1.943E-05
                                  500 K:  4.957E-05
                                 1000 K:  1.578E-04
                                 1500 K:  3.091E-04
                                 2000 K:  4.977E-04
 Gibbs Energy Amb. (kJ/mol),  289 K: -5.722E+01
                                  500 K: -9.997E+01
                                 1000 K: -2.109E+02
                                 1500 K: -3.305E+02
                                 2000 K: -4.560E+02

   METHANE
   Molecular Weight (g/mol)            16.04246
   Ambient Density (kg/m^3)            0.676
   Initial Mass Fraction               0.000
   Enthalpy of Formation (J/kg)     -4.650E+06

   Sub Species                    Mass Fraction     Mole Fraction
   METHANE                        1.000000E+00      1.000000E+00
 
     Viscosity (kg/m/s) Ambient,  289 K:  1.084E-05
                                  500 K:  1.677E-05
                                 1000 K:  2.728E-05
                                 1500 K:  3.559E-05
                                 2000 K:  4.290E-05
   Therm. Cond. (W/m/K) Ambient,  289 K:  3.412E-02
                                  500 K:  6.958E-02
                                 1000 K:  1.790E-01
                                 1500 K:  2.880E-01
                                 2000 K:  3.876E-01
        Enthalpy (J/kg) Ambient,  289 K: -4.670E+06
                                  500 K: -4.137E+06
                                 1000 K: -2.239E+06
                                 1500 K:  3.482E+05
                                 2000 K:  3.357E+06
    Spec. Heat (J/kg/K) Ambient,  289 K:  2.204E+03
                                  500 K:  2.904E+03
                                 1000 K:  4.593E+03
                                 1500 K:  5.664E+03
                                 2000 K:  6.323E+03
   Diff. Coeff. (m^2/s) Ambient,  289 K:  2.095E-05
                                  500 K:  5.438E-05
                                 1000 K:  1.750E-04
                                 1500 K:  3.433E-04
                                 2000 K:  5.530E-04
 Gibbs Energy Amb. (kJ/mol),  289 K: -1.285E+02
                                  500 K: -1.700E+02
                                 1000 K: -2.842E+02
                                 1500 K: -4.170E+02
                                 2000 K: -5.650E+02

   INTERMEDIATE PRODUCTS
   Molecular Weight (g/mol)            22.49274
   Ambient Density (kg/m^3)            0.948
   Initial Mass Fraction               0.000
   Enthalpy of Formation (J/kg)     -2.341E+06

   Sub Species                    Mass Fraction     Mole Fraction
   NITROGEN                       6.833897E-01      5.487126E-01
   CARBON DIOXIDE                 5.301207E-04      2.709385E-04
   WATER VAPOR                    1.221327E-01      1.524872E-01
   CARBON MONOXIDE                1.765846E-01      1.418014E-01
   SOOT                           3.985225E-03      7.463230E-03
   HYDROGEN                       1.337763E-02      1.492646E-01
   HYDROGEN CYANIDE               0.000000E+00      0.000000E+00
 
     Viscosity (kg/m/s) Ambient,  289 K:  1.581E-05
                                  500 K:  2.348E-05
                                 1000 K:  3.809E-05
                                 1500 K:  5.033E-05
                                 2000 K:  6.115E-05
   Therm. Cond. (W/m/K) Ambient,  289 K:  3.136E-02
                                  500 K:  4.741E-02
                                 1000 K:  8.431E-02
                                 1500 K:  1.202E-01
                                 2000 K:  1.533E-01
        Enthalpy (J/kg) Ambient,  289 K: -2.353E+06
                                  500 K: -2.073E+06
                                 1000 K: -1.363E+06
                                 1500 K: -5.832E+05
                                 2000 K:  2.456E+05
    Spec. Heat (J/kg/K) Ambient,  289 K:  1.316E+03
                                  500 K:  1.348E+03
                                 1000 K:  1.495E+03
                                 1500 K:  1.616E+03
                                 2000 K:  1.693E+03
   Diff. Coeff. (m^2/s) Ambient,  289 K:  2.729E-05
                                  500 K:  7.026E-05
                                 1000 K:  2.253E-04
                                 1500 K:  4.424E-04
                                 2000 K:  7.131E-04
 Gibbs Energy Amb. (kJ/mol),  289 K: -1.044E+02
                                  500 K: -1.463E+02
                                 1000 K: -2.555E+02
                                 1500 K: -3.734E+02
                                 2000 K: -4.974E+02

   PRODUCTS
   Molecular Weight (g/mol)            27.59944
   Ambient Density (kg/m^3)            1.163
   Initial Mass Fraction               0.000
   Enthalpy of Formation (J/kg)     -3.043E+06

   Sub Species                    Mass Fraction     Mole Fraction
   NITROGEN                       7.228276E-01      7.121461E-01
   CARBON DIOXIDE                 1.511527E-01      9.479156E-02
   WATER VAPOR                    1.260197E-01      1.930623E-01
   CARBON MONOXIDE                0.000000E+00      0.000000E+00
   SOOT                           0.000000E+00      0.000000E+00
   HYDROGEN CYANIDE               0.000000E+00      0.000000E+00
 
     Viscosity (kg/m/s) Ambient,  289 K:  1.584E-05
                                  500 K:  2.375E-05
                                 1000 K:  3.887E-05
                                 1500 K:  5.148E-05
                                 2000 K:  6.259E-05
   Therm. Cond. (W/m/K) Ambient,  289 K:  2.323E-02
                                  500 K:  3.624E-02
                                 1000 K:  6.755E-02
                                 1500 K:  9.743E-02
                                 2000 K:  1.244E-01
        Enthalpy (J/kg) Ambient,  289 K: -3.053E+06
                                  500 K: -2.814E+06
                                 1000 K: -2.193E+06
                                 1500 K: -1.503E+06
                                 2000 K: -7.697E+05
    Spec. Heat (J/kg/K) Ambient,  289 K:  1.112E+03
                                  500 K:  1.163E+03
                                 1000 K:  1.319E+03
                                 1500 K:  1.431E+03
                                 2000 K:  1.497E+03
   Diff. Coeff. (m^2/s) Ambient,  289 K:  1.915E-05
                                  500 K:  4.997E-05
                                 1000 K:  1.618E-04
                                 1500 K:  3.183E-04
                                 2000 K:  5.135E-04
 Gibbs Energy Amb. (kJ/mol),  289 K: -1.462E+02
                                  500 K: -1.890E+02
                                 1000 K: -3.011E+02
                                 1500 K: -4.227E+02
                                 2000 K: -5.510E+02


 Gas Phase Reaction Information

   Reaction 1

      Priority:                                                               1

      Fuel                                           Heat of Combustion (kJ/kg)
      METHANE                                                        16969.6191
      2-step reaction,  Total Heat of Combustion                     50027.3649

      Primitive Species Stoich. Coeff.
      Species ID                                                          Molar
      OXYGEN                                                          -0.975000
      WATER VAPOR                                                      1.000000
      CARBON MONOXIDE                                                  0.950000
      SOOT                                                             0.050000
      HYDROGEN                                                         1.000000
      METHANE                                                         -1.000000

      Tracked (Lumped) Species Stoich. Coeff.
      Species ID                                             Molar         Mass
      AIR                                                -4.674512    -8.393221
      METHANE                                            -1.000000    -1.000000
      INTERMEDIATE PRODUCTS                               6.699512     9.393221

      Reaction Kinetics

      Fast chemistry

      ODE Solver:  EXPLICIT EULER

      Extinction Model:  EXTINCTION 2
      Auto-Ignition Temperature (C):            -273.1
      Critical Flame Temperature (C):           1507.0

      Prescribed Radiative Fraction:             0.220

   Reaction 2

      Priority:                                                               2

      Fuel                                           Heat of Combustion (kJ/kg)
      INTERMEDIATE PRODUCTS                                           3519.3194

      Primitive Species Stoich. Coeff.
      Species ID                                                          Molar
      OXYGEN                                                          -0.152996
      CARBON DIOXIDE                                                   0.149265
      WATER VAPOR                                                      0.149265
      CARBON MONOXIDE                                                 -0.141801
      SOOT                                                            -0.007463
      HYDROGEN                                                        -0.149265

      Tracked (Lumped) Species Stoich. Coeff.
      Species ID                                             Molar         Mass
      AIR                                                -0.733521    -0.939363
      INTERMEDIATE PRODUCTS                              -1.000000    -1.000000
      PRODUCTS                                            1.580524     1.939363

      Reaction Kinetics

      Fast chemistry

      ODE Solver:  EXPLICIT EULER

      Prescribed Radiative Fraction:             0.220


 Material Information

   1 STEEL
     Emissivity:                                  0.800
     Density (kg/m3):                            7800.0
     Specific Heat (kJ/kg/K) Ambient,  289 K:  4.650E-01
                                       350 K:  4.650E-01
                                       500 K:  4.650E-01
                                       800 K:  4.650E-01
     Therm. Cond. (W/m/K) Ambient,     289 K:  5.400E+01
                                       350 K:  5.400E+01
                                       500 K:  5.400E+01
                                       800 K:  5.400E+01
     Enthalpy (kJ/kg) Ambient,         289 K:  1.344E+02
                                       350 K:  1.628E+02
                                       500 K:  2.325E+02
                                       800 K:  3.720E+02


 Surface Conditions

   0 INERT (DEFAULT)

   1 PAN
     Material List
          1  STEEL
     Layer  1
        Thickness   (m):  0.00300
        Density (kg/m3):  7800.00
        STEEL, Mass fraction:    1.00
     Reaction products considered from the first  0.50 layers.
     Total surface density    23.400 kg/m2
     Solid Phase Node, Layer, Coordinates(m):
                    0      1       0.0000000
                    1      1       0.0030000
     Exposed Backing

   2 POOL
     METHANE Mass Flux (kg/s/m2)   6.400E-03

   3 OPEN
     Passive Vent to Atmosphere

   4 MIRROR
     Symmetry Plane

   5 INTERPOLATED

   6 PERIODIC

   7 HVAC

   8 MASSLESS TRACER

   9 DROPLET

  10 MASSLESS TARGET

  11 PERIODIC FLOW ONLY


 Lagrangian Particle Classes


 PROPerty Information

   1 TC
     Smokeview ID                sensor


 Cut-off Density and Temperature

    Minimum Temperature:  -259.1 C
    Maximum Temperature:  2726.8 C
    Minimum Density:  1.214E-01 kg/m3
    Maximum Density:  5.015E+01 kg/m3


 Device Information

   1 ID: TC_CL
     QUANTITY: THERMOCOUPLE
     Coordinates (X,Y,Z):    1.000000E-03    1.000000E-03    2.500000E-03
     TEMPORAL STATISTIC: RUNNING AVERAGE
  Property ID: TC
   2 ID: TC_CL
     QUANTITY: THERMOCOUPLE
     Coordinates (X,Y,Z):    1.000000E-03    1.000000E-03    2.280612E-02
     TEMPORAL STATISTIC: RUNNING AVERAGE
  Property ID: TC
   3 ID: TC_CL
     QUANTITY: THERMOCOUPLE
     Coordinates (X,Y,Z):    1.000000E-03    1.000000E-03    4.311224E-02
     TEMPORAL STATISTIC: RUNNING AVERAGE
  Property ID: TC
   4 ID: TC_CL
     QUANTITY: THERMOCOUPLE
     Coordinates (X,Y,Z):    1.000000E-03    1.000000E-03    6.341837E-02
     TEMPORAL STATISTIC: RUNNING AVERAGE
  Property ID: TC
   5 ID: TC_CL
     QUANTITY: THERMOCOUPLE
     Coordinates (X,Y,Z):    1.000000E-03    1.000000E-03    8.372449E-02
     TEMPORAL STATISTIC: RUNNING AVERAGE
  Property ID: TC
   6 ID: TC_CL
     QUANTITY: THERMOCOUPLE
     Coordinates (X,Y,Z):    1.000000E-03    1.000000E-03    1.040306E-01
     TEMPORAL STATISTIC: RUNNING AVERAGE
  Property ID: TC
   7 ID: TC_CL
     QUANTITY: THERMOCOUPLE
     Coordinates (X,Y,Z):    1.000000E-03    1.000000E-03    1.243367E-01
     TEMPORAL STATISTIC: RUNNING AVERAGE
  Property ID: TC
   8 ID: TC_CL
     QUANTITY: THERMOCOUPLE
     Coordinates (X,Y,Z):    1.000000E-03    1.000000E-03    1.446429E-01
     TEMPORAL STATISTIC: RUNNING AVERAGE
  Property ID: TC
   9 ID: TC_CL
     QUANTITY: THERMOCOUPLE
     Coordinates (X,Y,Z):    1.000000E-03    1.000000E-03    1.649490E-01
     TEMPORAL STATISTIC: RUNNING AVERAGE
  Property ID: TC
  10 ID: TC_CL
     QUANTITY: THERMOCOUPLE
     Coordinates (X,Y,Z):    1.000000E-03    1.000000E-03    1.852551E-01
     TEMPORAL STATISTIC: RUNNING AVERAGE
  Property ID: TC
  11 ID: TC_CL
     QUANTITY: THERMOCOUPLE
     Coordinates (X,Y,Z):    1.000000E-03    1.000000E-03    2.055612E-01
     TEMPORAL STATISTIC: RUNNING AVERAGE
  Property ID: TC
  12 ID: TC_CL
     QUANTITY: THERMOCOUPLE
     Coordinates (X,Y,Z):    1.000000E-03    1.000000E-03    2.258673E-01
     TEMPORAL STATISTIC: RUNNING AVERAGE
  Property ID: TC
  13 ID: TC_CL
     QUANTITY: THERMOCOUPLE
     Coordinates (X,Y,Z):    1.000000E-03    1.000000E-03    2.461735E-01
     TEMPORAL STATISTIC: RUNNING AVERAGE
  Property ID: TC
  14 ID: TC_CL
     QUANTITY: THERMOCOUPLE
     Coordinates (X,Y,Z):    1.000000E-03    1.000000E-03    2.664796E-01
     TEMPORAL STATISTIC: RUNNING AVERAGE
  Property ID: TC
  15 ID: TC_CL
     QUANTITY: THERMOCOUPLE
     Coordinates (X,Y,Z):    1.000000E-03    1.000000E-03    2.867857E-01
     TEMPORAL STATISTIC: RUNNING AVERAGE
  Property ID: TC
  16 ID: TC_CL
     QUANTITY: THERMOCOUPLE
     Coordinates (X,Y,Z):    1.000000E-03    1.000000E-03    3.070918E-01
     TEMPORAL STATISTIC: RUNNING AVERAGE
  Property ID: TC
  17 ID: TC_CL
     QUANTITY: THERMOCOUPLE
     Coordinates (X,Y,Z):    1.000000E-03    1.000000E-03    3.273980E-01
     TEMPORAL STATISTIC: RUNNING AVERAGE
  Property ID: TC
  18 ID: TC_CL
     QUANTITY: THERMOCOUPLE
     Coordinates (X,Y,Z):    1.000000E-03    1.000000E-03    3.477041E-01
     TEMPORAL STATISTIC: RUNNING AVERAGE
  Property ID: TC
  19 ID: TC_CL
     QUANTITY: THERMOCOUPLE
     Coordinates (X,Y,Z):    1.000000E-03    1.000000E-03    3.680102E-01
     TEMPORAL STATISTIC: RUNNING AVERAGE
  Property ID: TC
  20 ID: TC_CL
     QUANTITY: THERMOCOUPLE
     Coordinates (X,Y,Z):    1.000000E-03    1.000000E-03    3.883163E-01
     TEMPORAL STATISTIC: RUNNING AVERAGE
  Property ID: TC
  21 ID: TC_CL
     QUANTITY: THERMOCOUPLE
     Coordinates (X,Y,Z):    1.000000E-03    1.000000E-03    4.086224E-01
     TEMPORAL STATISTIC: RUNNING AVERAGE
  Property ID: TC
  22 ID: TC_CL
     QUANTITY: THERMOCOUPLE
     Coordinates (X,Y,Z):    1.000000E-03    1.000000E-03    4.289286E-01
     TEMPORAL STATISTIC: RUNNING AVERAGE
  Property ID: TC
  23 ID: TC_CL
     QUANTITY: THERMOCOUPLE
     Coordinates (X,Y,Z):    1.000000E-03    1.000000E-03    4.492347E-01
     TEMPORAL STATISTIC: RUNNING AVERAGE
  Property ID: TC
  24 ID: TC_CL
     QUANTITY: THERMOCOUPLE
     Coordinates (X,Y,Z):    1.000000E-03    1.000000E-03    4.695408E-01
     TEMPORAL STATISTIC: RUNNING AVERAGE
  Property ID: TC
  25 ID: TC_CL
     QUANTITY: THERMOCOUPLE
     Coordinates (X,Y,Z):    1.000000E-03    1.000000E-03    4.898469E-01
     TEMPORAL STATISTIC: RUNNING AVERAGE
  Property ID: TC
  26 ID: TC_CL
     QUANTITY: THERMOCOUPLE
     Coordinates (X,Y,Z):    1.000000E-03    1.000000E-03    5.101531E-01
     TEMPORAL STATISTIC: RUNNING AVERAGE
  Property ID: TC
  27 ID: TC_CL
     QUANTITY: THERMOCOUPLE
     Coordinates (X,Y,Z):    1.000000E-03    1.000000E-03    5.304592E-01
     TEMPORAL STATISTIC: RUNNING AVERAGE
  Property ID: TC
  28 ID: TC_CL
     QUANTITY: THERMOCOUPLE
     Coordinates (X,Y,Z):    1.000000E-03    1.000000E-03    5.507653E-01
     TEMPORAL STATISTIC: RUNNING AVERAGE
  Property ID: TC
  29 ID: TC_CL
     QUANTITY: THERMOCOUPLE
     Coordinates (X,Y,Z):    1.000000E-03    1.000000E-03    5.710714E-01
     TEMPORAL STATISTIC: RUNNING AVERAGE
  Property ID: TC
  30 ID: TC_CL
     QUANTITY: THERMOCOUPLE
     Coordinates (X,Y,Z):    1.000000E-03    1.000000E-03    5.913776E-01
     TEMPORAL STATISTIC: RUNNING AVERAGE
  Property ID: TC
  31 ID: TC_CL
     QUANTITY: THERMOCOUPLE
     Coordinates (X,Y,Z):    1.000000E-03    1.000000E-03    6.116837E-01
     TEMPORAL STATISTIC: RUNNING AVERAGE
  Property ID: TC
  32 ID: TC_CL
     QUANTITY: THERMOCOUPLE
     Coordinates (X,Y,Z):    1.000000E-03    1.000000E-03    6.319898E-01
     TEMPORAL STATISTIC: RUNNING AVERAGE
  Property ID: TC
  33 ID: TC_CL
     QUANTITY: THERMOCOUPLE
     Coordinates (X,Y,Z):    1.000000E-03    1.000000E-03    6.522959E-01
     TEMPORAL STATISTIC: RUNNING AVERAGE
  Property ID: TC
  34 ID: TC_CL
     QUANTITY: THERMOCOUPLE
     Coordinates (X,Y,Z):    1.000000E-03    1.000000E-03    6.726020E-01
     TEMPORAL STATISTIC: RUNNING AVERAGE
  Property ID: TC
  35 ID: TC_CL
     QUANTITY: THERMOCOUPLE
     Coordinates (X,Y,Z):    1.000000E-03    1.000000E-03    6.929082E-01
     TEMPORAL STATISTIC: RUNNING AVERAGE
  Property ID: TC
  36 ID: TC_CL
     QUANTITY: THERMOCOUPLE
     Coordinates (X,Y,Z):    1.000000E-03    1.000000E-03    7.132143E-01
     TEMPORAL STATISTIC: RUNNING AVERAGE
  Property ID: TC
  37 ID: TC_CL
     QUANTITY: THERMOCOUPLE
     Coordinates (X,Y,Z):    1.000000E-03    1.000000E-03    7.335204E-01
     TEMPORAL STATISTIC: RUNNING AVERAGE
  Property ID: TC
  38 ID: TC_CL
     QUANTITY: THERMOCOUPLE
     Coordinates (X,Y,Z):    1.000000E-03    1.000000E-03    7.538265E-01
     TEMPORAL STATISTIC: RUNNING AVERAGE
  Property ID: TC
  39 ID: TC_CL
     QUANTITY: THERMOCOUPLE
     Coordinates (X,Y,Z):    1.000000E-03    1.000000E-03    7.741327E-01
     TEMPORAL STATISTIC: RUNNING AVERAGE
  Property ID: TC
  40 ID: TC_CL
     QUANTITY: THERMOCOUPLE
     Coordinates (X,Y,Z):    1.000000E-03    1.000000E-03    7.944388E-01
     TEMPORAL STATISTIC: RUNNING AVERAGE
  Property ID: TC
  41 ID: TC_CL
     QUANTITY: THERMOCOUPLE
     Coordinates (X,Y,Z):    1.000000E-03    1.000000E-03    8.147449E-01
     TEMPORAL STATISTIC: RUNNING AVERAGE
  Property ID: TC
  42 ID: TC_CL
     QUANTITY: THERMOCOUPLE
     Coordinates (X,Y,Z):    1.000000E-03    1.000000E-03    8.350510E-01
     TEMPORAL STATISTIC: RUNNING AVERAGE
  Property ID: TC
  43 ID: TC_CL
     QUANTITY: THERMOCOUPLE
     Coordinates (X,Y,Z):    1.000000E-03    1.000000E-03    8.553571E-01
     TEMPORAL STATISTIC: RUNNING AVERAGE
  Property ID: TC
  44 ID: TC_CL
     QUANTITY: THERMOCOUPLE
     Coordinates (X,Y,Z):    1.000000E-03    1.000000E-03    8.756633E-01
     TEMPORAL STATISTIC: RUNNING AVERAGE
  Property ID: TC
  45 ID: TC_CL
     QUANTITY: THERMOCOUPLE
     Coordinates (X,Y,Z):    1.000000E-03    1.000000E-03    8.959694E-01
     TEMPORAL STATISTIC: RUNNING AVERAGE
  Property ID: TC
  46 ID: TC_CL
     QUANTITY: THERMOCOUPLE
     Coordinates (X,Y,Z):    1.000000E-03    1.000000E-03    9.162755E-01
     TEMPORAL STATISTIC: RUNNING AVERAGE
  Property ID: TC
  47 ID: TC_CL
     QUANTITY: THERMOCOUPLE
     Coordinates (X,Y,Z):    1.000000E-03    1.000000E-03    9.365816E-01
     TEMPORAL STATISTIC: RUNNING AVERAGE
  Property ID: TC
  48 ID: TC_CL
     QUANTITY: THERMOCOUPLE
     Coordinates (X,Y,Z):    1.000000E-03    1.000000E-03    9.568878E-01
     TEMPORAL STATISTIC: RUNNING AVERAGE
  Property ID: TC
  49 ID: TC_CL
     QUANTITY: THERMOCOUPLE
     Coordinates (X,Y,Z):    1.000000E-03    1.000000E-03    9.771939E-01
     TEMPORAL STATISTIC: RUNNING AVERAGE
  Property ID: TC
  50 ID: TC_CL
     QUANTITY: THERMOCOUPLE
     Coordinates (X,Y,Z):    1.000000E-03    1.000000E-03    9.975000E-01
     TEMPORAL STATISTIC: RUNNING AVERAGE
  Property ID: TC
  51 ID: TG_CL
     QUANTITY: TEMPERATURE
     Coordinates (X,Y,Z):    1.000000E-03    1.000000E-03    2.500000E-03
     TEMPORAL STATISTIC: RUNNING AVERAGE
  52 ID: TG_CL
     QUANTITY: TEMPERATURE
     Coordinates (X,Y,Z):    1.000000E-03    1.000000E-03    2.280612E-02
     TEMPORAL STATISTIC: RUNNING AVERAGE
  53 ID: TG_CL
     QUANTITY: TEMPERATURE
     Coordinates (X,Y,Z):    1.000000E-03    1.000000E-03    4.311224E-02
     TEMPORAL STATISTIC: RUNNING AVERAGE
  54 ID: TG_CL
     QUANTITY: TEMPERATURE
     Coordinates (X,Y,Z):    1.000000E-03    1.000000E-03    6.341837E-02
     TEMPORAL STATISTIC: RUNNING AVERAGE
  55 ID: TG_CL
     QUANTITY: TEMPERATURE
     Coordinates (X,Y,Z):    1.000000E-03    1.000000E-03    8.372449E-02
     TEMPORAL STATISTIC: RUNNING AVERAGE
  56 ID: TG_CL
     QUANTITY: TEMPERATURE
     Coordinates (X,Y,Z):    1.000000E-03    1.000000E-03    1.040306E-01
     TEMPORAL STATISTIC: RUNNING AVERAGE
  57 ID: TG_CL
     QUANTITY: TEMPERATURE
     Coordinates (X,Y,Z):    1.000000E-03    1.000000E-03    1.243367E-01
     TEMPORAL STATISTIC: RUNNING AVERAGE
  58 ID: TG_CL
     QUANTITY: TEMPERATURE
     Coordinates (X,Y,Z):    1.000000E-03    1.000000E-03    1.446429E-01
     TEMPORAL STATISTIC: RUNNING AVERAGE
  59 ID: TG_CL
     QUANTITY: TEMPERATURE
     Coordinates (X,Y,Z):    1.000000E-03    1.000000E-03    1.649490E-01
     TEMPORAL STATISTIC: RUNNING AVERAGE
  60 ID: TG_CL
     QUANTITY: TEMPERATURE
     Coordinates (X,Y,Z):    1.000000E-03    1.000000E-03    1.852551E-01
     TEMPORAL STATISTIC: RUNNING AVERAGE
  61 ID: TG_CL
     QUANTITY: TEMPERATURE
     Coordinates (X,Y,Z):    1.000000E-03    1.000000E-03    2.055612E-01
     TEMPORAL STATISTIC: RUNNING AVERAGE
  62 ID: TG_CL
     QUANTITY: TEMPERATURE
     Coordinates (X,Y,Z):    1.000000E-03    1.000000E-03    2.258673E-01
     TEMPORAL STATISTIC: RUNNING AVERAGE
  63 ID: TG_CL
     QUANTITY: TEMPERATURE
     Coordinates (X,Y,Z):    1.000000E-03    1.000000E-03    2.461735E-01
     TEMPORAL STATISTIC: RUNNING AVERAGE
  64 ID: TG_CL
     QUANTITY: TEMPERATURE
     Coordinates (X,Y,Z):    1.000000E-03    1.000000E-03    2.664796E-01
     TEMPORAL STATISTIC: RUNNING AVERAGE
  65 ID: TG_CL
     QUANTITY: TEMPERATURE
     Coordinates (X,Y,Z):    1.000000E-03    1.000000E-03    2.867857E-01
     TEMPORAL STATISTIC: RUNNING AVERAGE
  66 ID: TG_CL
     QUANTITY: TEMPERATURE
     Coordinates (X,Y,Z):    1.000000E-03    1.000000E-03    3.070918E-01
     TEMPORAL STATISTIC: RUNNING AVERAGE
  67 ID: TG_CL
     QUANTITY: TEMPERATURE
     Coordinates (X,Y,Z):    1.000000E-03    1.000000E-03    3.273980E-01
     TEMPORAL STATISTIC: RUNNING AVERAGE
  68 ID: TG_CL
     QUANTITY: TEMPERATURE
     Coordinates (X,Y,Z):    1.000000E-03    1.000000E-03    3.477041E-01
     TEMPORAL STATISTIC: RUNNING AVERAGE
  69 ID: TG_CL
     QUANTITY: TEMPERATURE
     Coordinates (X,Y,Z):    1.000000E-03    1.000000E-03    3.680102E-01
     TEMPORAL STATISTIC: RUNNING AVERAGE
  70 ID: TG_CL
     QUANTITY: TEMPERATURE
     Coordinates (X,Y,Z):    1.000000E-03    1.000000E-03    3.883163E-01
     TEMPORAL STATISTIC: RUNNING AVERAGE
  71 ID: TG_CL
     QUANTITY: TEMPERATURE
     Coordinates (X,Y,Z):    1.000000E-03    1.000000E-03    4.086224E-01
     TEMPORAL STATISTIC: RUNNING AVERAGE
  72 ID: TG_CL
     QUANTITY: TEMPERATURE
     Coordinates (X,Y,Z):    1.000000E-03    1.000000E-03    4.289286E-01
     TEMPORAL STATISTIC: RUNNING AVERAGE
  73 ID: TG_CL
     QUANTITY: TEMPERATURE
     Coordinates (X,Y,Z):    1.000000E-03    1.000000E-03    4.492347E-01
     TEMPORAL STATISTIC: RUNNING AVERAGE
  74 ID: TG_CL
     QUANTITY: TEMPERATURE
     Coordinates (X,Y,Z):    1.000000E-03    1.000000E-03    4.695408E-01
     TEMPORAL STATISTIC: RUNNING AVERAGE
  75 ID: TG_CL
     QUANTITY: TEMPERATURE
     Coordinates (X,Y,Z):    1.000000E-03    1.000000E-03    4.898469E-01
     TEMPORAL STATISTIC: RUNNING AVERAGE
  76 ID: TG_CL
     QUANTITY: TEMPERATURE
     Coordinates (X,Y,Z):    1.000000E-03    1.000000E-03    5.101531E-01
     TEMPORAL STATISTIC: RUNNING AVERAGE
  77 ID: TG_CL
     QUANTITY: TEMPERATURE
     Coordinates (X,Y,Z):    1.000000E-03    1.000000E-03    5.304592E-01
     TEMPORAL STATISTIC: RUNNING AVERAGE
  78 ID: TG_CL
     QUANTITY: TEMPERATURE
     Coordinates (X,Y,Z):    1.000000E-03    1.000000E-03    5.507653E-01
     TEMPORAL STATISTIC: RUNNING AVERAGE
  79 ID: TG_CL
     QUANTITY: TEMPERATURE
     Coordinates (X,Y,Z):    1.000000E-03    1.000000E-03    5.710714E-01
     TEMPORAL STATISTIC: RUNNING AVERAGE
  80 ID: TG_CL
     QUANTITY: TEMPERATURE
     Coordinates (X,Y,Z):    1.000000E-03    1.000000E-03    5.913776E-01
     TEMPORAL STATISTIC: RUNNING AVERAGE
  81 ID: TG_CL
     QUANTITY: TEMPERATURE
     Coordinates (X,Y,Z):    1.000000E-03    1.000000E-03    6.116837E-01
     TEMPORAL STATISTIC: RUNNING AVERAGE
  82 ID: TG_CL
     QUANTITY: TEMPERATURE
     Coordinates (X,Y,Z):    1.000000E-03    1.000000E-03    6.319898E-01
     TEMPORAL STATISTIC: RUNNING AVERAGE
  83 ID: TG_CL
     QUANTITY: TEMPERATURE
     Coordinates (X,Y,Z):    1.000000E-03    1.000000E-03    6.522959E-01
     TEMPORAL STATISTIC: RUNNING AVERAGE
  84 ID: TG_CL
     QUANTITY: TEMPERATURE
     Coordinates (X,Y,Z):    1.000000E-03    1.000000E-03    6.726020E-01
     TEMPORAL STATISTIC: RUNNING AVERAGE
  85 ID: TG_CL
     QUANTITY: TEMPERATURE
     Coordinates (X,Y,Z):    1.000000E-03    1.000000E-03    6.929082E-01
     TEMPORAL STATISTIC: RUNNING AVERAGE
  86 ID: TG_CL
     QUANTITY: TEMPERATURE
     Coordinates (X,Y,Z):    1.000000E-03    1.000000E-03    7.132143E-01
     TEMPORAL STATISTIC: RUNNING AVERAGE
  87 ID: TG_CL
     QUANTITY: TEMPERATURE
     Coordinates (X,Y,Z):    1.000000E-03    1.000000E-03    7.335204E-01
     TEMPORAL STATISTIC: RUNNING AVERAGE
  88 ID: TG_CL
     QUANTITY: TEMPERATURE
     Coordinates (X,Y,Z):    1.000000E-03    1.000000E-03    7.538265E-01
     TEMPORAL STATISTIC: RUNNING AVERAGE
  89 ID: TG_CL
     QUANTITY: TEMPERATURE
     Coordinates (X,Y,Z):    1.000000E-03    1.000000E-03    7.741327E-01
     TEMPORAL STATISTIC: RUNNING AVERAGE
  90 ID: TG_CL
     QUANTITY: TEMPERATURE
     Coordinates (X,Y,Z):    1.000000E-03    1.000000E-03    7.944388E-01
     TEMPORAL STATISTIC: RUNNING AVERAGE
  91 ID: TG_CL
     QUANTITY: TEMPERATURE
     Coordinates (X,Y,Z):    1.000000E-03    1.000000E-03    8.147449E-01
     TEMPORAL STATISTIC: RUNNING AVERAGE
  92 ID: TG_CL
     QUANTITY: TEMPERATURE
     Coordinates (X,Y,Z):    1.000000E-03    1.000000E-03    8.350510E-01
     TEMPORAL STATISTIC: RUNNING AVERAGE
  93 ID: TG_CL
     QUANTITY: TEMPERATURE
     Coordinates (X,Y,Z):    1.000000E-03    1.000000E-03    8.553571E-01
     TEMPORAL STATISTIC: RUNNING AVERAGE
  94 ID: TG_CL
     QUANTITY: TEMPERATURE
     Coordinates (X,Y,Z):    1.000000E-03    1.000000E-03    8.756633E-01
     TEMPORAL STATISTIC: RUNNING AVERAGE
  95 ID: TG_CL
     QUANTITY: TEMPERATURE
     Coordinates (X,Y,Z):    1.000000E-03    1.000000E-03    8.959694E-01
     TEMPORAL STATISTIC: RUNNING AVERAGE
  96 ID: TG_CL
     QUANTITY: TEMPERATURE
     Coordinates (X,Y,Z):    1.000000E-03    1.000000E-03    9.162755E-01
     TEMPORAL STATISTIC: RUNNING AVERAGE
  97 ID: TG_CL
     QUANTITY: TEMPERATURE
     Coordinates (X,Y,Z):    1.000000E-03    1.000000E-03    9.365816E-01
     TEMPORAL STATISTIC: RUNNING AVERAGE
  98 ID: TG_CL
     QUANTITY: TEMPERATURE
     Coordinates (X,Y,Z):    1.000000E-03    1.000000E-03    9.568878E-01
     TEMPORAL STATISTIC: RUNNING AVERAGE
  99 ID: TG_CL
     QUANTITY: TEMPERATURE
     Coordinates (X,Y,Z):    1.000000E-03    1.000000E-03    9.771939E-01
     TEMPORAL STATISTIC: RUNNING AVERAGE
 100 ID: TG_CL
     QUANTITY: TEMPERATURE
     Coordinates (X,Y,Z):    1.000000E-03    1.000000E-03    9.975000E-01
     TEMPORAL STATISTIC: RUNNING AVERAGE
 101 ID: w_CL
     QUANTITY: W-VELOCITY
     Coordinates (X,Y,Z):    1.000000E-03    1.000000E-03    2.500000E-03
     TEMPORAL STATISTIC: RUNNING AVERAGE
 102 ID: w_CL
     QUANTITY: W-VELOCITY
     Coordinates (X,Y,Z):    1.000000E-03    1.000000E-03    2.280612E-02
     TEMPORAL STATISTIC: RUNNING AVERAGE
 103 ID: w_CL
     QUANTITY: W-VELOCITY
     Coordinates (X,Y,Z):    1.000000E-03    1.000000E-03    4.311224E-02
     TEMPORAL STATISTIC: RUNNING AVERAGE
 104 ID: w_CL
     QUANTITY: W-VELOCITY
     Coordinates (X,Y,Z):    1.000000E-03    1.000000E-03    6.341837E-02
     TEMPORAL STATISTIC: RUNNING AVERAGE
 105 ID: w_CL
     QUANTITY: W-VELOCITY
     Coordinates (X,Y,Z):    1.000000E-03    1.000000E-03    8.372449E-02
     TEMPORAL STATISTIC: RUNNING AVERAGE
 106 ID: w_CL
     QUANTITY: W-VELOCITY
     Coordinates (X,Y,Z):    1.000000E-03    1.000000E-03    1.040306E-01
     TEMPORAL STATISTIC: RUNNING AVERAGE
 107 ID: w_CL
     QUANTITY: W-VELOCITY
     Coordinates (X,Y,Z):    1.000000E-03    1.000000E-03    1.243367E-01
     TEMPORAL STATISTIC: RUNNING AVERAGE
 108 ID: w_CL
     QUANTITY: W-VELOCITY
     Coordinates (X,Y,Z):    1.000000E-03    1.000000E-03    1.446429E-01
     TEMPORAL STATISTIC: RUNNING AVERAGE
 109 ID: w_CL
     QUANTITY: W-VELOCITY
     Coordinates (X,Y,Z):    1.000000E-03    1.000000E-03    1.649490E-01
     TEMPORAL STATISTIC: RUNNING AVERAGE
 110 ID: w_CL
     QUANTITY: W-VELOCITY
     Coordinates (X,Y,Z):    1.000000E-03    1.000000E-03    1.852551E-01
     TEMPORAL STATISTIC: RUNNING AVERAGE
 111 ID: w_CL
     QUANTITY: W-VELOCITY
     Coordinates (X,Y,Z):    1.000000E-03    1.000000E-03    2.055612E-01
     TEMPORAL STATISTIC: RUNNING AVERAGE
 112 ID: w_CL
     QUANTITY: W-VELOCITY
     Coordinates (X,Y,Z):    1.000000E-03    1.000000E-03    2.258673E-01
     TEMPORAL STATISTIC: RUNNING AVERAGE
 113 ID: w_CL
     QUANTITY: W-VELOCITY
     Coordinates (X,Y,Z):    1.000000E-03    1.000000E-03    2.461735E-01
     TEMPORAL STATISTIC: RUNNING AVERAGE
 114 ID: w_CL
     QUANTITY: W-VELOCITY
     Coordinates (X,Y,Z):    1.000000E-03    1.000000E-03    2.664796E-01
     TEMPORAL STATISTIC: RUNNING AVERAGE
 115 ID: w_CL
     QUANTITY: W-VELOCITY
     Coordinates (X,Y,Z):    1.000000E-03    1.000000E-03    2.867857E-01
     TEMPORAL STATISTIC: RUNNING AVERAGE
 116 ID: w_CL
     QUANTITY: W-VELOCITY
     Coordinates (X,Y,Z):    1.000000E-03    1.000000E-03    3.070918E-01
     TEMPORAL STATISTIC: RUNNING AVERAGE
 117 ID: w_CL
     QUANTITY: W-VELOCITY
     Coordinates (X,Y,Z):    1.000000E-03    1.000000E-03    3.273980E-01
     TEMPORAL STATISTIC: RUNNING AVERAGE
 118 ID: w_CL
     QUANTITY: W-VELOCITY
     Coordinates (X,Y,Z):    1.000000E-03    1.000000E-03    3.477041E-01
     TEMPORAL STATISTIC: RUNNING AVERAGE
 119 ID: w_CL
     QUANTITY: W-VELOCITY
     Coordinates (X,Y,Z):    1.000000E-03    1.000000E-03    3.680102E-01
     TEMPORAL STATISTIC: RUNNING AVERAGE
 120 ID: w_CL
     QUANTITY: W-VELOCITY
     Coordinates (X,Y,Z):    1.000000E-03    1.000000E-03    3.883163E-01
     TEMPORAL STATISTIC: RUNNING AVERAGE
 121 ID: w_CL
     QUANTITY: W-VELOCITY
     Coordinates (X,Y,Z):    1.000000E-03    1.000000E-03    4.086224E-01
     TEMPORAL STATISTIC: RUNNING AVERAGE
 122 ID: w_CL
     QUANTITY: W-VELOCITY
     Coordinates (X,Y,Z):    1.000000E-03    1.000000E-03    4.289286E-01
     TEMPORAL STATISTIC: RUNNING AVERAGE
 123 ID: w_CL
     QUANTITY: W-VELOCITY
     Coordinates (X,Y,Z):    1.000000E-03    1.000000E-03    4.492347E-01
     TEMPORAL STATISTIC: RUNNING AVERAGE
 124 ID: w_CL
     QUANTITY: W-VELOCITY
     Coordinates (X,Y,Z):    1.000000E-03    1.000000E-03    4.695408E-01
     TEMPORAL STATISTIC: RUNNING AVERAGE
 125 ID: w_CL
     QUANTITY: W-VELOCITY
     Coordinates (X,Y,Z):    1.000000E-03    1.000000E-03    4.898469E-01
     TEMPORAL STATISTIC: RUNNING AVERAGE
 126 ID: w_CL
     QUANTITY: W-VELOCITY
     Coordinates (X,Y,Z):    1.000000E-03    1.000000E-03    5.101531E-01
     TEMPORAL STATISTIC: RUNNING AVERAGE
 127 ID: w_CL
     QUANTITY: W-VELOCITY
     Coordinates (X,Y,Z):    1.000000E-03    1.000000E-03    5.304592E-01
     TEMPORAL STATISTIC: RUNNING AVERAGE
 128 ID: w_CL
     QUANTITY: W-VELOCITY
     Coordinates (X,Y,Z):    1.000000E-03    1.000000E-03    5.507653E-01
     TEMPORAL STATISTIC: RUNNING AVERAGE
 129 ID: w_CL
     QUANTITY: W-VELOCITY
     Coordinates (X,Y,Z):    1.000000E-03    1.000000E-03    5.710714E-01
     TEMPORAL STATISTIC: RUNNING AVERAGE
 130 ID: w_CL
     QUANTITY: W-VELOCITY
     Coordinates (X,Y,Z):    1.000000E-03    1.000000E-03    5.913776E-01
     TEMPORAL STATISTIC: RUNNING AVERAGE
 131 ID: w_CL
     QUANTITY: W-VELOCITY
     Coordinates (X,Y,Z):    1.000000E-03    1.000000E-03    6.116837E-01
     TEMPORAL STATISTIC: RUNNING AVERAGE
 132 ID: w_CL
     QUANTITY: W-VELOCITY
     Coordinates (X,Y,Z):    1.000000E-03    1.000000E-03    6.319898E-01
     TEMPORAL STATISTIC: RUNNING AVERAGE
 133 ID: w_CL
     QUANTITY: W-VELOCITY
     Coordinates (X,Y,Z):    1.000000E-03    1.000000E-03    6.522959E-01
     TEMPORAL STATISTIC: RUNNING AVERAGE
 134 ID: w_CL
     QUANTITY: W-VELOCITY
     Coordinates (X,Y,Z):    1.000000E-03    1.000000E-03    6.726020E-01
     TEMPORAL STATISTIC: RUNNING AVERAGE
 135 ID: w_CL
     QUANTITY: W-VELOCITY
     Coordinates (X,Y,Z):    1.000000E-03    1.000000E-03    6.929082E-01
     TEMPORAL STATISTIC: RUNNING AVERAGE
 136 ID: w_CL
     QUANTITY: W-VELOCITY
     Coordinates (X,Y,Z):    1.000000E-03    1.000000E-03    7.132143E-01
     TEMPORAL STATISTIC: RUNNING AVERAGE
 137 ID: w_CL
     QUANTITY: W-VELOCITY
     Coordinates (X,Y,Z):    1.000000E-03    1.000000E-03    7.335204E-01
     TEMPORAL STATISTIC: RUNNING AVERAGE
 138 ID: w_CL
     QUANTITY: W-VELOCITY
     Coordinates (X,Y,Z):    1.000000E-03    1.000000E-03    7.538265E-01
     TEMPORAL STATISTIC: RUNNING AVERAGE
 139 ID: w_CL
     QUANTITY: W-VELOCITY
     Coordinates (X,Y,Z):    1.000000E-03    1.000000E-03    7.741327E-01
     TEMPORAL STATISTIC: RUNNING AVERAGE
 140 ID: w_CL
     QUANTITY: W-VELOCITY
     Coordinates (X,Y,Z):    1.000000E-03    1.000000E-03    7.944388E-01
     TEMPORAL STATISTIC: RUNNING AVERAGE
 141 ID: w_CL
     QUANTITY: W-VELOCITY
     Coordinates (X,Y,Z):    1.000000E-03    1.000000E-03    8.147449E-01
     TEMPORAL STATISTIC: RUNNING AVERAGE
 142 ID: w_CL
     QUANTITY: W-VELOCITY
     Coordinates (X,Y,Z):    1.000000E-03    1.000000E-03    8.350510E-01
     TEMPORAL STATISTIC: RUNNING AVERAGE
 143 ID: w_CL
     QUANTITY: W-VELOCITY
     Coordinates (X,Y,Z):    1.000000E-03    1.000000E-03    8.553571E-01
     TEMPORAL STATISTIC: RUNNING AVERAGE
 144 ID: w_CL
     QUANTITY: W-VELOCITY
     Coordinates (X,Y,Z):    1.000000E-03    1.000000E-03    8.756633E-01
     TEMPORAL STATISTIC: RUNNING AVERAGE
 145 ID: w_CL
     QUANTITY: W-VELOCITY
     Coordinates (X,Y,Z):    1.000000E-03    1.000000E-03    8.959694E-01
     TEMPORAL STATISTIC: RUNNING AVERAGE
 146 ID: w_CL
     QUANTITY: W-VELOCITY
     Coordinates (X,Y,Z):    1.000000E-03    1.000000E-03    9.162755E-01
     TEMPORAL STATISTIC: RUNNING AVERAGE
 147 ID: w_CL
     QUANTITY: W-VELOCITY
     Coordinates (X,Y,Z):    1.000000E-03    1.000000E-03    9.365816E-01
     TEMPORAL STATISTIC: RUNNING AVERAGE
 148 ID: w_CL
     QUANTITY: W-VELOCITY
     Coordinates (X,Y,Z):    1.000000E-03    1.000000E-03    9.568878E-01
     TEMPORAL STATISTIC: RUNNING AVERAGE
 149 ID: w_CL
     QUANTITY: W-VELOCITY
     Coordinates (X,Y,Z):    1.000000E-03    1.000000E-03    9.771939E-01
     TEMPORAL STATISTIC: RUNNING AVERAGE
 150 ID: w_CL
     QUANTITY: W-VELOCITY
     Coordinates (X,Y,Z):    1.000000E-03    1.000000E-03    9.975000E-01
     TEMPORAL STATISTIC: RUNNING AVERAGE
 151 ID: TC_CL_RMS
     QUANTITY: THERMOCOUPLE
     Coordinates (X,Y,Z):    1.000000E-03    1.000000E-03    2.500000E-03
     TEMPORAL STATISTIC: RMS
  Property ID: TC
 152 ID: TC_CL_RMS
     QUANTITY: THERMOCOUPLE
     Coordinates (X,Y,Z):    1.000000E-03    1.000000E-03    2.280612E-02
     TEMPORAL STATISTIC: RMS
  Property ID: TC
 153 ID: TC_CL_RMS
     QUANTITY: THERMOCOUPLE
     Coordinates (X,Y,Z):    1.000000E-03    1.000000E-03    4.311224E-02
     TEMPORAL STATISTIC: RMS
  Property ID: TC
 154 ID: TC_CL_RMS
     QUANTITY: THERMOCOUPLE
     Coordinates (X,Y,Z):    1.000000E-03    1.000000E-03    6.341837E-02
     TEMPORAL STATISTIC: RMS
  Property ID: TC
 155 ID: TC_CL_RMS
     QUANTITY: THERMOCOUPLE
     Coordinates (X,Y,Z):    1.000000E-03    1.000000E-03    8.372449E-02
     TEMPORAL STATISTIC: RMS
  Property ID: TC
 156 ID: TC_CL_RMS
     QUANTITY: THERMOCOUPLE
     Coordinates (X,Y,Z):    1.000000E-03    1.000000E-03    1.040306E-01
     TEMPORAL STATISTIC: RMS
  Property ID: TC
 157 ID: TC_CL_RMS
     QUANTITY: THERMOCOUPLE
     Coordinates (X,Y,Z):    1.000000E-03    1.000000E-03    1.243367E-01
     TEMPORAL STATISTIC: RMS
  Property ID: TC
 158 ID: TC_CL_RMS
     QUANTITY: THERMOCOUPLE
     Coordinates (X,Y,Z):    1.000000E-03    1.000000E-03    1.446429E-01
     TEMPORAL STATISTIC: RMS
  Property ID: TC
 159 ID: TC_CL_RMS
     QUANTITY: THERMOCOUPLE
     Coordinates (X,Y,Z):    1.000000E-03    1.000000E-03    1.649490E-01
     TEMPORAL STATISTIC: RMS
  Property ID: TC
 160 ID: TC_CL_RMS
     QUANTITY: THERMOCOUPLE
     Coordinates (X,Y,Z):    1.000000E-03    1.000000E-03    1.852551E-01
     TEMPORAL STATISTIC: RMS
  Property ID: TC
 161 ID: TC_CL_RMS
     QUANTITY: THERMOCOUPLE
     Coordinates (X,Y,Z):    1.000000E-03    1.000000E-03    2.055612E-01
     TEMPORAL STATISTIC: RMS
  Property ID: TC
 162 ID: TC_CL_RMS
     QUANTITY: THERMOCOUPLE
     Coordinates (X,Y,Z):    1.000000E-03    1.000000E-03    2.258673E-01
     TEMPORAL STATISTIC: RMS
  Property ID: TC
 163 ID: TC_CL_RMS
     QUANTITY: THERMOCOUPLE
     Coordinates (X,Y,Z):    1.000000E-03    1.000000E-03    2.461735E-01
     TEMPORAL STATISTIC: RMS
  Property ID: TC
 164 ID: TC_CL_RMS
     QUANTITY: THERMOCOUPLE
     Coordinates (X,Y,Z):    1.000000E-03    1.000000E-03    2.664796E-01
     TEMPORAL STATISTIC: RMS
  Property ID: TC
 165 ID: TC_CL_RMS
     QUANTITY: THERMOCOUPLE
     Coordinates (X,Y,Z):    1.000000E-03    1.000000E-03    2.867857E-01
     TEMPORAL STATISTIC: RMS
  Property ID: TC
 166 ID: TC_CL_RMS
     QUANTITY: THERMOCOUPLE
     Coordinates (X,Y,Z):    1.000000E-03    1.000000E-03    3.070918E-01
     TEMPORAL STATISTIC: RMS
  Property ID: TC
 167 ID: TC_CL_RMS
     QUANTITY: THERMOCOUPLE
     Coordinates (X,Y,Z):    1.000000E-03    1.000000E-03    3.273980E-01
     TEMPORAL STATISTIC: RMS
  Property ID: TC
 168 ID: TC_CL_RMS
     QUANTITY: THERMOCOUPLE
     Coordinates (X,Y,Z):    1.000000E-03    1.000000E-03    3.477041E-01
     TEMPORAL STATISTIC: RMS
  Property ID: TC
 169 ID: TC_CL_RMS
     QUANTITY: THERMOCOUPLE
     Coordinates (X,Y,Z):    1.000000E-03    1.000000E-03    3.680102E-01
     TEMPORAL STATISTIC: RMS
  Property ID: TC
 170 ID: TC_CL_RMS
     QUANTITY: THERMOCOUPLE
     Coordinates (X,Y,Z):    1.000000E-03    1.000000E-03    3.883163E-01
     TEMPORAL STATISTIC: RMS
  Property ID: TC
 171 ID: TC_CL_RMS
     QUANTITY: THERMOCOUPLE
     Coordinates (X,Y,Z):    1.000000E-03    1.000000E-03    4.086224E-01
     TEMPORAL STATISTIC: RMS
  Property ID: TC
 172 ID: TC_CL_RMS
     QUANTITY: THERMOCOUPLE
     Coordinates (X,Y,Z):    1.000000E-03    1.000000E-03    4.289286E-01
     TEMPORAL STATISTIC: RMS
  Property ID: TC
 173 ID: TC_CL_RMS
     QUANTITY: THERMOCOUPLE
     Coordinates (X,Y,Z):    1.000000E-03    1.000000E-03    4.492347E-01
     TEMPORAL STATISTIC: RMS
  Property ID: TC
 174 ID: TC_CL_RMS
     QUANTITY: THERMOCOUPLE
     Coordinates (X,Y,Z):    1.000000E-03    1.000000E-03    4.695408E-01
     TEMPORAL STATISTIC: RMS
  Property ID: TC
 175 ID: TC_CL_RMS
     QUANTITY: THERMOCOUPLE
     Coordinates (X,Y,Z):    1.000000E-03    1.000000E-03    4.898469E-01
     TEMPORAL STATISTIC: RMS
  Property ID: TC
 176 ID: TC_CL_RMS
     QUANTITY: THERMOCOUPLE
     Coordinates (X,Y,Z):    1.000000E-03    1.000000E-03    5.101531E-01
     TEMPORAL STATISTIC: RMS
  Property ID: TC
 177 ID: TC_CL_RMS
     QUANTITY: THERMOCOUPLE
     Coordinates (X,Y,Z):    1.000000E-03    1.000000E-03    5.304592E-01
     TEMPORAL STATISTIC: RMS
  Property ID: TC
 178 ID: TC_CL_RMS
     QUANTITY: THERMOCOUPLE
     Coordinates (X,Y,Z):    1.000000E-03    1.000000E-03    5.507653E-01
     TEMPORAL STATISTIC: RMS
  Property ID: TC
 179 ID: TC_CL_RMS
     QUANTITY: THERMOCOUPLE
     Coordinates (X,Y,Z):    1.000000E-03    1.000000E-03    5.710714E-01
     TEMPORAL STATISTIC: RMS
  Property ID: TC
 180 ID: TC_CL_RMS
     QUANTITY: THERMOCOUPLE
     Coordinates (X,Y,Z):    1.000000E-03    1.000000E-03    5.913776E-01
     TEMPORAL STATISTIC: RMS
  Property ID: TC
 181 ID: TC_CL_RMS
     QUANTITY: THERMOCOUPLE
     Coordinates (X,Y,Z):    1.000000E-03    1.000000E-03    6.116837E-01
     TEMPORAL STATISTIC: RMS
  Property ID: TC
 182 ID: TC_CL_RMS
     QUANTITY: THERMOCOUPLE
     Coordinates (X,Y,Z):    1.000000E-03    1.000000E-03    6.319898E-01
     TEMPORAL STATISTIC: RMS
  Property ID: TC
 183 ID: TC_CL_RMS
     QUANTITY: THERMOCOUPLE
     Coordinates (X,Y,Z):    1.000000E-03    1.000000E-03    6.522959E-01
     TEMPORAL STATISTIC: RMS
  Property ID: TC
 184 ID: TC_CL_RMS
     QUANTITY: THERMOCOUPLE
     Coordinates (X,Y,Z):    1.000000E-03    1.000000E-03    6.726020E-01
     TEMPORAL STATISTIC: RMS
  Property ID: TC
 185 ID: TC_CL_RMS
     QUANTITY: THERMOCOUPLE
     Coordinates (X,Y,Z):    1.000000E-03    1.000000E-03    6.929082E-01
     TEMPORAL STATISTIC: RMS
  Property ID: TC
 186 ID: TC_CL_RMS
     QUANTITY: THERMOCOUPLE
     Coordinates (X,Y,Z):    1.000000E-03    1.000000E-03    7.132143E-01
     TEMPORAL STATISTIC: RMS
  Property ID: TC
 187 ID: TC_CL_RMS
     QUANTITY: THERMOCOUPLE
     Coordinates (X,Y,Z):    1.000000E-03    1.000000E-03    7.335204E-01
     TEMPORAL STATISTIC: RMS
  Property ID: TC
 188 ID: TC_CL_RMS
     QUANTITY: THERMOCOUPLE
     Coordinates (X,Y,Z):    1.000000E-03    1.000000E-03    7.538265E-01
     TEMPORAL STATISTIC: RMS
  Property ID: TC
 189 ID: TC_CL_RMS
     QUANTITY: THERMOCOUPLE
     Coordinates (X,Y,Z):    1.000000E-03    1.000000E-03    7.741327E-01
     TEMPORAL STATISTIC: RMS
  Property ID: TC
 190 ID: TC_CL_RMS
     QUANTITY: THERMOCOUPLE
     Coordinates (X,Y,Z):    1.000000E-03    1.000000E-03    7.944388E-01
     TEMPORAL STATISTIC: RMS
  Property ID: TC
 191 ID: TC_CL_RMS
     QUANTITY: THERMOCOUPLE
     Coordinates (X,Y,Z):    1.000000E-03    1.000000E-03    8.147449E-01
     TEMPORAL STATISTIC: RMS
  Property ID: TC
 192 ID: TC_CL_RMS
     QUANTITY: THERMOCOUPLE
     Coordinates (X,Y,Z):    1.000000E-03    1.000000E-03    8.350510E-01
     TEMPORAL STATISTIC: RMS
  Property ID: TC
 193 ID: TC_CL_RMS
     QUANTITY: THERMOCOUPLE
     Coordinates (X,Y,Z):    1.000000E-03    1.000000E-03    8.553571E-01
     TEMPORAL STATISTIC: RMS
  Property ID: TC
 194 ID: TC_CL_RMS
     QUANTITY: THERMOCOUPLE
     Coordinates (X,Y,Z):    1.000000E-03    1.000000E-03    8.756633E-01
     TEMPORAL STATISTIC: RMS
  Property ID: TC
 195 ID: TC_CL_RMS
     QUANTITY: THERMOCOUPLE
     Coordinates (X,Y,Z):    1.000000E-03    1.000000E-03    8.959694E-01
     TEMPORAL STATISTIC: RMS
  Property ID: TC
 196 ID: TC_CL_RMS
     QUANTITY: THERMOCOUPLE
     Coordinates (X,Y,Z):    1.000000E-03    1.000000E-03    9.162755E-01
     TEMPORAL STATISTIC: RMS
  Property ID: TC
 197 ID: TC_CL_RMS
     QUANTITY: THERMOCOUPLE
     Coordinates (X,Y,Z):    1.000000E-03    1.000000E-03    9.365816E-01
     TEMPORAL STATISTIC: RMS
  Property ID: TC
 198 ID: TC_CL_RMS
     QUANTITY: THERMOCOUPLE
     Coordinates (X,Y,Z):    1.000000E-03    1.000000E-03    9.568878E-01
     TEMPORAL STATISTIC: RMS
  Property ID: TC
 199 ID: TC_CL_RMS
     QUANTITY: THERMOCOUPLE
     Coordinates (X,Y,Z):    1.000000E-03    1.000000E-03    9.771939E-01
     TEMPORAL STATISTIC: RMS
  Property ID: TC
 200 ID: TC_CL_RMS
     QUANTITY: THERMOCOUPLE
     Coordinates (X,Y,Z):    1.000000E-03    1.000000E-03    9.975000E-01
     TEMPORAL STATISTIC: RMS
  Property ID: TC
 201 ID: TG_CL_RMS
     QUANTITY: TEMPERATURE
     Coordinates (X,Y,Z):    1.000000E-03    1.000000E-03    2.500000E-03
     TEMPORAL STATISTIC: RMS
 202 ID: TG_CL_RMS
     QUANTITY: TEMPERATURE
     Coordinates (X,Y,Z):    1.000000E-03    1.000000E-03    2.280612E-02
     TEMPORAL STATISTIC: RMS
 203 ID: TG_CL_RMS
     QUANTITY: TEMPERATURE
     Coordinates (X,Y,Z):    1.000000E-03    1.000000E-03    4.311224E-02
     TEMPORAL STATISTIC: RMS
 204 ID: TG_CL_RMS
     QUANTITY: TEMPERATURE
     Coordinates (X,Y,Z):    1.000000E-03    1.000000E-03    6.341837E-02
     TEMPORAL STATISTIC: RMS
 205 ID: TG_CL_RMS
     QUANTITY: TEMPERATURE
     Coordinates (X,Y,Z):    1.000000E-03    1.000000E-03    8.372449E-02
     TEMPORAL STATISTIC: RMS
 206 ID: TG_CL_RMS
     QUANTITY: TEMPERATURE
     Coordinates (X,Y,Z):    1.000000E-03    1.000000E-03    1.040306E-01
     TEMPORAL STATISTIC: RMS
 207 ID: TG_CL_RMS
     QUANTITY: TEMPERATURE
     Coordinates (X,Y,Z):    1.000000E-03    1.000000E-03    1.243367E-01
     TEMPORAL STATISTIC: RMS
 208 ID: TG_CL_RMS
     QUANTITY: TEMPERATURE
     Coordinates (X,Y,Z):    1.000000E-03    1.000000E-03    1.446429E-01
     TEMPORAL STATISTIC: RMS
 209 ID: TG_CL_RMS
     QUANTITY: TEMPERATURE
     Coordinates (X,Y,Z):    1.000000E-03    1.000000E-03    1.649490E-01
     TEMPORAL STATISTIC: RMS
 210 ID: TG_CL_RMS
     QUANTITY: TEMPERATURE
     Coordinates (X,Y,Z):    1.000000E-03    1.000000E-03    1.852551E-01
     TEMPORAL STATISTIC: RMS
 211 ID: TG_CL_RMS
     QUANTITY: TEMPERATURE
     Coordinates (X,Y,Z):    1.000000E-03    1.000000E-03    2.055612E-01
     TEMPORAL STATISTIC: RMS
 212 ID: TG_CL_RMS
     QUANTITY: TEMPERATURE
     Coordinates (X,Y,Z):    1.000000E-03    1.000000E-03    2.258673E-01
     TEMPORAL STATISTIC: RMS
 213 ID: TG_CL_RMS
     QUANTITY: TEMPERATURE
     Coordinates (X,Y,Z):    1.000000E-03    1.000000E-03    2.461735E-01
     TEMPORAL STATISTIC: RMS
 214 ID: TG_CL_RMS
     QUANTITY: TEMPERATURE
     Coordinates (X,Y,Z):    1.000000E-03    1.000000E-03    2.664796E-01
     TEMPORAL STATISTIC: RMS
 215 ID: TG_CL_RMS
     QUANTITY: TEMPERATURE
     Coordinates (X,Y,Z):    1.000000E-03    1.000000E-03    2.867857E-01
     TEMPORAL STATISTIC: RMS
 216 ID: TG_CL_RMS
     QUANTITY: TEMPERATURE
     Coordinates (X,Y,Z):    1.000000E-03    1.000000E-03    3.070918E-01
     TEMPORAL STATISTIC: RMS
 217 ID: TG_CL_RMS
     QUANTITY: TEMPERATURE
     Coordinates (X,Y,Z):    1.000000E-03    1.000000E-03    3.273980E-01
     TEMPORAL STATISTIC: RMS
 218 ID: TG_CL_RMS
     QUANTITY: TEMPERATURE
     Coordinates (X,Y,Z):    1.000000E-03    1.000000E-03    3.477041E-01
     TEMPORAL STATISTIC: RMS
 219 ID: TG_CL_RMS
     QUANTITY: TEMPERATURE
     Coordinates (X,Y,Z):    1.000000E-03    1.000000E-03    3.680102E-01
     TEMPORAL STATISTIC: RMS
 220 ID: TG_CL_RMS
     QUANTITY: TEMPERATURE
     Coordinates (X,Y,Z):    1.000000E-03    1.000000E-03    3.883163E-01
     TEMPORAL STATISTIC: RMS
 221 ID: TG_CL_RMS
     QUANTITY: TEMPERATURE
     Coordinates (X,Y,Z):    1.000000E-03    1.000000E-03    4.086224E-01
     TEMPORAL STATISTIC: RMS
 222 ID: TG_CL_RMS
     QUANTITY: TEMPERATURE
     Coordinates (X,Y,Z):    1.000000E-03    1.000000E-03    4.289286E-01
     TEMPORAL STATISTIC: RMS
 223 ID: TG_CL_RMS
     QUANTITY: TEMPERATURE
     Coordinates (X,Y,Z):    1.000000E-03    1.000000E-03    4.492347E-01
     TEMPORAL STATISTIC: RMS
 224 ID: TG_CL_RMS
     QUANTITY: TEMPERATURE
     Coordinates (X,Y,Z):    1.000000E-03    1.000000E-03    4.695408E-01
     TEMPORAL STATISTIC: RMS
 225 ID: TG_CL_RMS
     QUANTITY: TEMPERATURE
     Coordinates (X,Y,Z):    1.000000E-03    1.000000E-03    4.898469E-01
     TEMPORAL STATISTIC: RMS
 226 ID: TG_CL_RMS
     QUANTITY: TEMPERATURE
     Coordinates (X,Y,Z):    1.000000E-03    1.000000E-03    5.101531E-01
     TEMPORAL STATISTIC: RMS
 227 ID: TG_CL_RMS
     QUANTITY: TEMPERATURE
     Coordinates (X,Y,Z):    1.000000E-03    1.000000E-03    5.304592E-01
     TEMPORAL STATISTIC: RMS
 228 ID: TG_CL_RMS
     QUANTITY: TEMPERATURE
     Coordinates (X,Y,Z):    1.000000E-03    1.000000E-03    5.507653E-01
     TEMPORAL STATISTIC: RMS
 229 ID: TG_CL_RMS
     QUANTITY: TEMPERATURE
     Coordinates (X,Y,Z):    1.000000E-03    1.000000E-03    5.710714E-01
     TEMPORAL STATISTIC: RMS
 230 ID: TG_CL_RMS
     QUANTITY: TEMPERATURE
     Coordinates (X,Y,Z):    1.000000E-03    1.000000E-03    5.913776E-01
     TEMPORAL STATISTIC: RMS
 231 ID: TG_CL_RMS
     QUANTITY: TEMPERATURE
     Coordinates (X,Y,Z):    1.000000E-03    1.000000E-03    6.116837E-01
     TEMPORAL STATISTIC: RMS
 232 ID: TG_CL_RMS
     QUANTITY: TEMPERATURE
     Coordinates (X,Y,Z):    1.000000E-03    1.000000E-03    6.319898E-01
     TEMPORAL STATISTIC: RMS
 233 ID: TG_CL_RMS
     QUANTITY: TEMPERATURE
     Coordinates (X,Y,Z):    1.000000E-03    1.000000E-03    6.522959E-01
     TEMPORAL STATISTIC: RMS
 234 ID: TG_CL_RMS
     QUANTITY: TEMPERATURE
     Coordinates (X,Y,Z):    1.000000E-03    1.000000E-03    6.726020E-01
     TEMPORAL STATISTIC: RMS
 235 ID: TG_CL_RMS
     QUANTITY: TEMPERATURE
     Coordinates (X,Y,Z):    1.000000E-03    1.000000E-03    6.929082E-01
     TEMPORAL STATISTIC: RMS
 236 ID: TG_CL_RMS
     QUANTITY: TEMPERATURE
     Coordinates (X,Y,Z):    1.000000E-03    1.000000E-03    7.132143E-01
     TEMPORAL STATISTIC: RMS
 237 ID: TG_CL_RMS
     QUANTITY: TEMPERATURE
     Coordinates (X,Y,Z):    1.000000E-03    1.000000E-03    7.335204E-01
     TEMPORAL STATISTIC: RMS
 238 ID: TG_CL_RMS
     QUANTITY: TEMPERATURE
     Coordinates (X,Y,Z):    1.000000E-03    1.000000E-03    7.538265E-01
     TEMPORAL STATISTIC: RMS
 239 ID: TG_CL_RMS
     QUANTITY: TEMPERATURE
     Coordinates (X,Y,Z):    1.000000E-03    1.000000E-03    7.741327E-01
     TEMPORAL STATISTIC: RMS
 240 ID: TG_CL_RMS
     QUANTITY: TEMPERATURE
     Coordinates (X,Y,Z):    1.000000E-03    1.000000E-03    7.944388E-01
     TEMPORAL STATISTIC: RMS
 241 ID: TG_CL_RMS
     QUANTITY: TEMPERATURE
     Coordinates (X,Y,Z):    1.000000E-03    1.000000E-03    8.147449E-01
     TEMPORAL STATISTIC: RMS
 242 ID: TG_CL_RMS
     QUANTITY: TEMPERATURE
     Coordinates (X,Y,Z):    1.000000E-03    1.000000E-03    8.350510E-01
     TEMPORAL STATISTIC: RMS
 243 ID: TG_CL_RMS
     QUANTITY: TEMPERATURE
     Coordinates (X,Y,Z):    1.000000E-03    1.000000E-03    8.553571E-01
     TEMPORAL STATISTIC: RMS
 244 ID: TG_CL_RMS
     QUANTITY: TEMPERATURE
     Coordinates (X,Y,Z):    1.000000E-03    1.000000E-03    8.756633E-01
     TEMPORAL STATISTIC: RMS
 245 ID: TG_CL_RMS
     QUANTITY: TEMPERATURE
     Coordinates (X,Y,Z):    1.000000E-03    1.000000E-03    8.959694E-01
     TEMPORAL STATISTIC: RMS
 246 ID: TG_CL_RMS
     QUANTITY: TEMPERATURE
     Coordinates (X,Y,Z):    1.000000E-03    1.000000E-03    9.162755E-01
     TEMPORAL STATISTIC: RMS
 247 ID: TG_CL_RMS
     QUANTITY: TEMPERATURE
     Coordinates (X,Y,Z):    1.000000E-03    1.000000E-03    9.365816E-01
     TEMPORAL STATISTIC: RMS
 248 ID: TG_CL_RMS
     QUANTITY: TEMPERATURE
     Coordinates (X,Y,Z):    1.000000E-03    1.000000E-03    9.568878E-01
     TEMPORAL STATISTIC: RMS
 249 ID: TG_CL_RMS
     QUANTITY: TEMPERATURE
     Coordinates (X,Y,Z):    1.000000E-03    1.000000E-03    9.771939E-01
     TEMPORAL STATISTIC: RMS
 250 ID: TG_CL_RMS
     QUANTITY: TEMPERATURE
     Coordinates (X,Y,Z):    1.000000E-03    1.000000E-03    9.975000E-01
     TEMPORAL STATISTIC: RMS
 251 ID: w_CL_RMS
     QUANTITY: W-VELOCITY
     Coordinates (X,Y,Z):    1.000000E-03    1.000000E-03    2.500000E-03
     TEMPORAL STATISTIC: RMS
 252 ID: w_CL_RMS
     QUANTITY: W-VELOCITY
     Coordinates (X,Y,Z):    1.000000E-03    1.000000E-03    2.280612E-02
     TEMPORAL STATISTIC: RMS
 253 ID: w_CL_RMS
     QUANTITY: W-VELOCITY
     Coordinates (X,Y,Z):    1.000000E-03    1.000000E-03    4.311224E-02
     TEMPORAL STATISTIC: RMS
 254 ID: w_CL_RMS
     QUANTITY: W-VELOCITY
     Coordinates (X,Y,Z):    1.000000E-03    1.000000E-03    6.341837E-02
     TEMPORAL STATISTIC: RMS
 255 ID: w_CL_RMS
     QUANTITY: W-VELOCITY
     Coordinates (X,Y,Z):    1.000000E-03    1.000000E-03    8.372449E-02
     TEMPORAL STATISTIC: RMS
 256 ID: w_CL_RMS
     QUANTITY: W-VELOCITY
     Coordinates (X,Y,Z):    1.000000E-03    1.000000E-03    1.040306E-01
     TEMPORAL STATISTIC: RMS
 257 ID: w_CL_RMS
     QUANTITY: W-VELOCITY
     Coordinates (X,Y,Z):    1.000000E-03    1.000000E-03    1.243367E-01
     TEMPORAL STATISTIC: RMS
 258 ID: w_CL_RMS
     QUANTITY: W-VELOCITY
     Coordinates (X,Y,Z):    1.000000E-03    1.000000E-03    1.446429E-01
     TEMPORAL STATISTIC: RMS
 259 ID: w_CL_RMS
     QUANTITY: W-VELOCITY
     Coordinates (X,Y,Z):    1.000000E-03    1.000000E-03    1.649490E-01
     TEMPORAL STATISTIC: RMS
 260 ID: w_CL_RMS
     QUANTITY: W-VELOCITY
     Coordinates (X,Y,Z):    1.000000E-03    1.000000E-03    1.852551E-01
     TEMPORAL STATISTIC: RMS
 261 ID: w_CL_RMS
     QUANTITY: W-VELOCITY
     Coordinates (X,Y,Z):    1.000000E-03    1.000000E-03    2.055612E-01
     TEMPORAL STATISTIC: RMS
 262 ID: w_CL_RMS
     QUANTITY: W-VELOCITY
     Coordinates (X,Y,Z):    1.000000E-03    1.000000E-03    2.258673E-01
     TEMPORAL STATISTIC: RMS
 263 ID: w_CL_RMS
     QUANTITY: W-VELOCITY
     Coordinates (X,Y,Z):    1.000000E-03    1.000000E-03    2.461735E-01
     TEMPORAL STATISTIC: RMS
 264 ID: w_CL_RMS
     QUANTITY: W-VELOCITY
     Coordinates (X,Y,Z):    1.000000E-03    1.000000E-03    2.664796E-01
     TEMPORAL STATISTIC: RMS
 265 ID: w_CL_RMS
     QUANTITY: W-VELOCITY
     Coordinates (X,Y,Z):    1.000000E-03    1.000000E-03    2.867857E-01
     TEMPORAL STATISTIC: RMS
 266 ID: w_CL_RMS
     QUANTITY: W-VELOCITY
     Coordinates (X,Y,Z):    1.000000E-03    1.000000E-03    3.070918E-01
     TEMPORAL STATISTIC: RMS
 267 ID: w_CL_RMS
     QUANTITY: W-VELOCITY
     Coordinates (X,Y,Z):    1.000000E-03    1.000000E-03    3.273980E-01
     TEMPORAL STATISTIC: RMS
 268 ID: w_CL_RMS
     QUANTITY: W-VELOCITY
     Coordinates (X,Y,Z):    1.000000E-03    1.000000E-03    3.477041E-01
     TEMPORAL STATISTIC: RMS
 269 ID: w_CL_RMS
     QUANTITY: W-VELOCITY
     Coordinates (X,Y,Z):    1.000000E-03    1.000000E-03    3.680102E-01
     TEMPORAL STATISTIC: RMS
 270 ID: w_CL_RMS
     QUANTITY: W-VELOCITY
     Coordinates (X,Y,Z):    1.000000E-03    1.000000E-03    3.883163E-01
     TEMPORAL STATISTIC: RMS
 271 ID: w_CL_RMS
     QUANTITY: W-VELOCITY
     Coordinates (X,Y,Z):    1.000000E-03    1.000000E-03    4.086224E-01
     TEMPORAL STATISTIC: RMS
 272 ID: w_CL_RMS
     QUANTITY: W-VELOCITY
     Coordinates (X,Y,Z):    1.000000E-03    1.000000E-03    4.289286E-01
     TEMPORAL STATISTIC: RMS
 273 ID: w_CL_RMS
     QUANTITY: W-VELOCITY
     Coordinates (X,Y,Z):    1.000000E-03    1.000000E-03    4.492347E-01
     TEMPORAL STATISTIC: RMS
 274 ID: w_CL_RMS
     QUANTITY: W-VELOCITY
     Coordinates (X,Y,Z):    1.000000E-03    1.000000E-03    4.695408E-01
     TEMPORAL STATISTIC: RMS
 275 ID: w_CL_RMS
     QUANTITY: W-VELOCITY
     Coordinates (X,Y,Z):    1.000000E-03    1.000000E-03    4.898469E-01
     TEMPORAL STATISTIC: RMS
 276 ID: w_CL_RMS
     QUANTITY: W-VELOCITY
     Coordinates (X,Y,Z):    1.000000E-03    1.000000E-03    5.101531E-01
     TEMPORAL STATISTIC: RMS
 277 ID: w_CL_RMS
     QUANTITY: W-VELOCITY
     Coordinates (X,Y,Z):    1.000000E-03    1.000000E-03    5.304592E-01
     TEMPORAL STATISTIC: RMS
 278 ID: w_CL_RMS
     QUANTITY: W-VELOCITY
     Coordinates (X,Y,Z):    1.000000E-03    1.000000E-03    5.507653E-01
     TEMPORAL STATISTIC: RMS
 279 ID: w_CL_RMS
     QUANTITY: W-VELOCITY
     Coordinates (X,Y,Z):    1.000000E-03    1.000000E-03    5.710714E-01
     TEMPORAL STATISTIC: RMS
 280 ID: w_CL_RMS
     QUANTITY: W-VELOCITY
     Coordinates (X,Y,Z):    1.000000E-03    1.000000E-03    5.913776E-01
     TEMPORAL STATISTIC: RMS
 281 ID: w_CL_RMS
     QUANTITY: W-VELOCITY
     Coordinates (X,Y,Z):    1.000000E-03    1.000000E-03    6.116837E-01
     TEMPORAL STATISTIC: RMS
 282 ID: w_CL_RMS
     QUANTITY: W-VELOCITY
     Coordinates (X,Y,Z):    1.000000E-03    1.000000E-03    6.319898E-01
     TEMPORAL STATISTIC: RMS
 283 ID: w_CL_RMS
     QUANTITY: W-VELOCITY
     Coordinates (X,Y,Z):    1.000000E-03    1.000000E-03    6.522959E-01
     TEMPORAL STATISTIC: RMS
 284 ID: w_CL_RMS
     QUANTITY: W-VELOCITY
     Coordinates (X,Y,Z):    1.000000E-03    1.000000E-03    6.726020E-01
     TEMPORAL STATISTIC: RMS
 285 ID: w_CL_RMS
     QUANTITY: W-VELOCITY
     Coordinates (X,Y,Z):    1.000000E-03    1.000000E-03    6.929082E-01
     TEMPORAL STATISTIC: RMS
 286 ID: w_CL_RMS
     QUANTITY: W-VELOCITY
     Coordinates (X,Y,Z):    1.000000E-03    1.000000E-03    7.132143E-01
     TEMPORAL STATISTIC: RMS
 287 ID: w_CL_RMS
     QUANTITY: W-VELOCITY
     Coordinates (X,Y,Z):    1.000000E-03    1.000000E-03    7.335204E-01
     TEMPORAL STATISTIC: RMS
 288 ID: w_CL_RMS
     QUANTITY: W-VELOCITY
     Coordinates (X,Y,Z):    1.000000E-03    1.000000E-03    7.538265E-01
     TEMPORAL STATISTIC: RMS
 289 ID: w_CL_RMS
     QUANTITY: W-VELOCITY
     Coordinates (X,Y,Z):    1.000000E-03    1.000000E-03    7.741327E-01
     TEMPORAL STATISTIC: RMS
 290 ID: w_CL_RMS
     QUANTITY: W-VELOCITY
     Coordinates (X,Y,Z):    1.000000E-03    1.000000E-03    7.944388E-01
     TEMPORAL STATISTIC: RMS
 291 ID: w_CL_RMS
     QUANTITY: W-VELOCITY
     Coordinates (X,Y,Z):    1.000000E-03    1.000000E-03    8.147449E-01
     TEMPORAL STATISTIC: RMS
 292 ID: w_CL_RMS
     QUANTITY: W-VELOCITY
     Coordinates (X,Y,Z):    1.000000E-03    1.000000E-03    8.350510E-01
     TEMPORAL STATISTIC: RMS
 293 ID: w_CL_RMS
     QUANTITY: W-VELOCITY
     Coordinates (X,Y,Z):    1.000000E-03    1.000000E-03    8.553571E-01
     TEMPORAL STATISTIC: RMS
 294 ID: w_CL_RMS
     QUANTITY: W-VELOCITY
     Coordinates (X,Y,Z):    1.000000E-03    1.000000E-03    8.756633E-01
     TEMPORAL STATISTIC: RMS
 295 ID: w_CL_RMS
     QUANTITY: W-VELOCITY
     Coordinates (X,Y,Z):    1.000000E-03    1.000000E-03    8.959694E-01
     TEMPORAL STATISTIC: RMS
 296 ID: w_CL_RMS
     QUANTITY: W-VELOCITY
     Coordinates (X,Y,Z):    1.000000E-03    1.000000E-03    9.162755E-01
     TEMPORAL STATISTIC: RMS
 297 ID: w_CL_RMS
     QUANTITY: W-VELOCITY
     Coordinates (X,Y,Z):    1.000000E-03    1.000000E-03    9.365816E-01
     TEMPORAL STATISTIC: RMS
 298 ID: w_CL_RMS
     QUANTITY: W-VELOCITY
     Coordinates (X,Y,Z):    1.000000E-03    1.000000E-03    9.568878E-01
     TEMPORAL STATISTIC: RMS
 299 ID: w_CL_RMS
     QUANTITY: W-VELOCITY
     Coordinates (X,Y,Z):    1.000000E-03    1.000000E-03    9.771939E-01
     TEMPORAL STATISTIC: RMS
 300 ID: w_CL_RMS
     QUANTITY: W-VELOCITY
     Coordinates (X,Y,Z):    1.000000E-03    1.000000E-03    9.975000E-01
     TEMPORAL STATISTIC: RMS
 301 ID: X_O2
     QUANTITY: VOLUME FRACTION
     Species ID: OXYGEN
     Coordinates (X,Y,Z):    1.000000E-03    1.000000E-03    2.500000E-03
     TEMPORAL STATISTIC: RUNNING AVERAGE
 302 ID: X_O2
     QUANTITY: VOLUME FRACTION
     Species ID: OXYGEN
     Coordinates (X,Y,Z):    1.000000E-03    1.000000E-03    2.280612E-02
     TEMPORAL STATISTIC: RUNNING AVERAGE
 303 ID: X_O2
     QUANTITY: VOLUME FRACTION
     Species ID: OXYGEN
     Coordinates (X,Y,Z):    1.000000E-03    1.000000E-03    4.311224E-02
     TEMPORAL STATISTIC: RUNNING AVERAGE
 304 ID: X_O2
     QUANTITY: VOLUME FRACTION
     Species ID: OXYGEN
     Coordinates (X,Y,Z):    1.000000E-03    1.000000E-03    6.341837E-02
     TEMPORAL STATISTIC: RUNNING AVERAGE
 305 ID: X_O2
     QUANTITY: VOLUME FRACTION
     Species ID: OXYGEN
     Coordinates (X,Y,Z):    1.000000E-03    1.000000E-03    8.372449E-02
     TEMPORAL STATISTIC: RUNNING AVERAGE
 306 ID: X_O2
     QUANTITY: VOLUME FRACTION
     Species ID: OXYGEN
     Coordinates (X,Y,Z):    1.000000E-03    1.000000E-03    1.040306E-01
     TEMPORAL STATISTIC: RUNNING AVERAGE
 307 ID: X_O2
     QUANTITY: VOLUME FRACTION
     Species ID: OXYGEN
     Coordinates (X,Y,Z):    1.000000E-03    1.000000E-03    1.243367E-01
     TEMPORAL STATISTIC: RUNNING AVERAGE
 308 ID: X_O2
     QUANTITY: VOLUME FRACTION
     Species ID: OXYGEN
     Coordinates (X,Y,Z):    1.000000E-03    1.000000E-03    1.446429E-01
     TEMPORAL STATISTIC: RUNNING AVERAGE
 309 ID: X_O2
     QUANTITY: VOLUME FRACTION
     Species ID: OXYGEN
     Coordinates (X,Y,Z):    1.000000E-03    1.000000E-03    1.649490E-01
     TEMPORAL STATISTIC: RUNNING AVERAGE
 310 ID: X_O2
     QUANTITY: VOLUME FRACTION
     Species ID: OXYGEN
     Coordinates (X,Y,Z):    1.000000E-03    1.000000E-03    1.852551E-01
     TEMPORAL STATISTIC: RUNNING AVERAGE
 311 ID: X_O2
     QUANTITY: VOLUME FRACTION
     Species ID: OXYGEN
     Coordinates (X,Y,Z):    1.000000E-03    1.000000E-03    2.055612E-01
     TEMPORAL STATISTIC: RUNNING AVERAGE
 312 ID: X_O2
     QUANTITY: VOLUME FRACTION
     Species ID: OXYGEN
     Coordinates (X,Y,Z):    1.000000E-03    1.000000E-03    2.258673E-01
     TEMPORAL STATISTIC: RUNNING AVERAGE
 313 ID: X_O2
     QUANTITY: VOLUME FRACTION
     Species ID: OXYGEN
     Coordinates (X,Y,Z):    1.000000E-03    1.000000E-03    2.461735E-01
     TEMPORAL STATISTIC: RUNNING AVERAGE
 314 ID: X_O2
     QUANTITY: VOLUME FRACTION
     Species ID: OXYGEN
     Coordinates (X,Y,Z):    1.000000E-03    1.000000E-03    2.664796E-01
     TEMPORAL STATISTIC: RUNNING AVERAGE
 315 ID: X_O2
     QUANTITY: VOLUME FRACTION
     Species ID: OXYGEN
     Coordinates (X,Y,Z):    1.000000E-03    1.000000E-03    2.867857E-01
     TEMPORAL STATISTIC: RUNNING AVERAGE
 316 ID: X_O2
     QUANTITY: VOLUME FRACTION
     Species ID: OXYGEN
     Coordinates (X,Y,Z):    1.000000E-03    1.000000E-03    3.070918E-01
     TEMPORAL STATISTIC: RUNNING AVERAGE
 317 ID: X_O2
     QUANTITY: VOLUME FRACTION
     Species ID: OXYGEN
     Coordinates (X,Y,Z):    1.000000E-03    1.000000E-03    3.273980E-01
     TEMPORAL STATISTIC: RUNNING AVERAGE
 318 ID: X_O2
     QUANTITY: VOLUME FRACTION
     Species ID: OXYGEN
     Coordinates (X,Y,Z):    1.000000E-03    1.000000E-03    3.477041E-01
     TEMPORAL STATISTIC: RUNNING AVERAGE
 319 ID: X_O2
     QUANTITY: VOLUME FRACTION
     Species ID: OXYGEN
     Coordinates (X,Y,Z):    1.000000E-03    1.000000E-03    3.680102E-01
     TEMPORAL STATISTIC: RUNNING AVERAGE
 320 ID: X_O2
     QUANTITY: VOLUME FRACTION
     Species ID: OXYGEN
     Coordinates (X,Y,Z):    1.000000E-03    1.000000E-03    3.883163E-01
     TEMPORAL STATISTIC: RUNNING AVERAGE
 321 ID: X_O2
     QUANTITY: VOLUME FRACTION
     Species ID: OXYGEN
     Coordinates (X,Y,Z):    1.000000E-03    1.000000E-03    4.086224E-01
     TEMPORAL STATISTIC: RUNNING AVERAGE
 322 ID: X_O2
     QUANTITY: VOLUME FRACTION
     Species ID: OXYGEN
     Coordinates (X,Y,Z):    1.000000E-03    1.000000E-03    4.289286E-01
     TEMPORAL STATISTIC: RUNNING AVERAGE
 323 ID: X_O2
     QUANTITY: VOLUME FRACTION
     Species ID: OXYGEN
     Coordinates (X,Y,Z):    1.000000E-03    1.000000E-03    4.492347E-01
     TEMPORAL STATISTIC: RUNNING AVERAGE
 324 ID: X_O2
     QUANTITY: VOLUME FRACTION
     Species ID: OXYGEN
     Coordinates (X,Y,Z):    1.000000E-03    1.000000E-03    4.695408E-01
     TEMPORAL STATISTIC: RUNNING AVERAGE
 325 ID: X_O2
     QUANTITY: VOLUME FRACTION
     Species ID: OXYGEN
     Coordinates (X,Y,Z):    1.000000E-03    1.000000E-03    4.898469E-01
     TEMPORAL STATISTIC: RUNNING AVERAGE
 326 ID: X_O2
     QUANTITY: VOLUME FRACTION
     Species ID: OXYGEN
     Coordinates (X,Y,Z):    1.000000E-03    1.000000E-03    5.101531E-01
     TEMPORAL STATISTIC: RUNNING AVERAGE
 327 ID: X_O2
     QUANTITY: VOLUME FRACTION
     Species ID: OXYGEN
     Coordinates (X,Y,Z):    1.000000E-03    1.000000E-03    5.304592E-01
     TEMPORAL STATISTIC: RUNNING AVERAGE
 328 ID: X_O2
     QUANTITY: VOLUME FRACTION
     Species ID: OXYGEN
     Coordinates (X,Y,Z):    1.000000E-03    1.000000E-03    5.507653E-01
     TEMPORAL STATISTIC: RUNNING AVERAGE
 329 ID: X_O2
     QUANTITY: VOLUME FRACTION
     Species ID: OXYGEN
     Coordinates (X,Y,Z):    1.000000E-03    1.000000E-03    5.710714E-01
     TEMPORAL STATISTIC: RUNNING AVERAGE
 330 ID: X_O2
     QUANTITY: VOLUME FRACTION
     Species ID: OXYGEN
     Coordinates (X,Y,Z):    1.000000E-03    1.000000E-03    5.913776E-01
     TEMPORAL STATISTIC: RUNNING AVERAGE
 331 ID: X_O2
     QUANTITY: VOLUME FRACTION
     Species ID: OXYGEN
     Coordinates (X,Y,Z):    1.000000E-03    1.000000E-03    6.116837E-01
     TEMPORAL STATISTIC: RUNNING AVERAGE
 332 ID: X_O2
     QUANTITY: VOLUME FRACTION
     Species ID: OXYGEN
     Coordinates (X,Y,Z):    1.000000E-03    1.000000E-03    6.319898E-01
     TEMPORAL STATISTIC: RUNNING AVERAGE
 333 ID: X_O2
     QUANTITY: VOLUME FRACTION
     Species ID: OXYGEN
     Coordinates (X,Y,Z):    1.000000E-03    1.000000E-03    6.522959E-01
     TEMPORAL STATISTIC: RUNNING AVERAGE
 334 ID: X_O2
     QUANTITY: VOLUME FRACTION
     Species ID: OXYGEN
     Coordinates (X,Y,Z):    1.000000E-03    1.000000E-03    6.726020E-01
     TEMPORAL STATISTIC: RUNNING AVERAGE
 335 ID: X_O2
     QUANTITY: VOLUME FRACTION
     Species ID: OXYGEN
     Coordinates (X,Y,Z):    1.000000E-03    1.000000E-03    6.929082E-01
     TEMPORAL STATISTIC: RUNNING AVERAGE
 336 ID: X_O2
     QUANTITY: VOLUME FRACTION
     Species ID: OXYGEN
     Coordinates (X,Y,Z):    1.000000E-03    1.000000E-03    7.132143E-01
     TEMPORAL STATISTIC: RUNNING AVERAGE
 337 ID: X_O2
     QUANTITY: VOLUME FRACTION
     Species ID: OXYGEN
     Coordinates (X,Y,Z):    1.000000E-03    1.000000E-03    7.335204E-01
     TEMPORAL STATISTIC: RUNNING AVERAGE
 338 ID: X_O2
     QUANTITY: VOLUME FRACTION
     Species ID: OXYGEN
     Coordinates (X,Y,Z):    1.000000E-03    1.000000E-03    7.538265E-01
     TEMPORAL STATISTIC: RUNNING AVERAGE
 339 ID: X_O2
     QUANTITY: VOLUME FRACTION
     Species ID: OXYGEN
     Coordinates (X,Y,Z):    1.000000E-03    1.000000E-03    7.741327E-01
     TEMPORAL STATISTIC: RUNNING AVERAGE
 340 ID: X_O2
     QUANTITY: VOLUME FRACTION
     Species ID: OXYGEN
     Coordinates (X,Y,Z):    1.000000E-03    1.000000E-03    7.944388E-01
     TEMPORAL STATISTIC: RUNNING AVERAGE
 341 ID: X_O2
     QUANTITY: VOLUME FRACTION
     Species ID: OXYGEN
     Coordinates (X,Y,Z):    1.000000E-03    1.000000E-03    8.147449E-01
     TEMPORAL STATISTIC: RUNNING AVERAGE
 342 ID: X_O2
     QUANTITY: VOLUME FRACTION
     Species ID: OXYGEN
     Coordinates (X,Y,Z):    1.000000E-03    1.000000E-03    8.350510E-01
     TEMPORAL STATISTIC: RUNNING AVERAGE
 343 ID: X_O2
     QUANTITY: VOLUME FRACTION
     Species ID: OXYGEN
     Coordinates (X,Y,Z):    1.000000E-03    1.000000E-03    8.553571E-01
     TEMPORAL STATISTIC: RUNNING AVERAGE
 344 ID: X_O2
     QUANTITY: VOLUME FRACTION
     Species ID: OXYGEN
     Coordinates (X,Y,Z):    1.000000E-03    1.000000E-03    8.756633E-01
     TEMPORAL STATISTIC: RUNNING AVERAGE
 345 ID: X_O2
     QUANTITY: VOLUME FRACTION
     Species ID: OXYGEN
     Coordinates (X,Y,Z):    1.000000E-03    1.000000E-03    8.959694E-01
     TEMPORAL STATISTIC: RUNNING AVERAGE
 346 ID: X_O2
     QUANTITY: VOLUME FRACTION
     Species ID: OXYGEN
     Coordinates (X,Y,Z):    1.000000E-03    1.000000E-03    9.162755E-01
     TEMPORAL STATISTIC: RUNNING AVERAGE
 347 ID: X_O2
     QUANTITY: VOLUME FRACTION
     Species ID: OXYGEN
     Coordinates (X,Y,Z):    1.000000E-03    1.000000E-03    9.365816E-01
     TEMPORAL STATISTIC: RUNNING AVERAGE
 348 ID: X_O2
     QUANTITY: VOLUME FRACTION
     Species ID: OXYGEN
     Coordinates (X,Y,Z):    1.000000E-03    1.000000E-03    9.568878E-01
     TEMPORAL STATISTIC: RUNNING AVERAGE
 349 ID: X_O2
     QUANTITY: VOLUME FRACTION
     Species ID: OXYGEN
     Coordinates (X,Y,Z):    1.000000E-03    1.000000E-03    9.771939E-01
     TEMPORAL STATISTIC: RUNNING AVERAGE
 350 ID: X_O2
     QUANTITY: VOLUME FRACTION
     Species ID: OXYGEN
     Coordinates (X,Y,Z):    1.000000E-03    1.000000E-03    9.975000E-01
     TEMPORAL STATISTIC: RUNNING AVERAGE
 351 ID: X_CO2
     QUANTITY: VOLUME FRACTION
     Species ID: CARBON DIOXIDE
     Coordinates (X,Y,Z):    1.000000E-03    1.000000E-03    2.500000E-03
     TEMPORAL STATISTIC: RUNNING AVERAGE
 352 ID: X_CO2
     QUANTITY: VOLUME FRACTION
     Species ID: CARBON DIOXIDE
     Coordinates (X,Y,Z):    1.000000E-03    1.000000E-03    2.280612E-02
     TEMPORAL STATISTIC: RUNNING AVERAGE
 353 ID: X_CO2
     QUANTITY: VOLUME FRACTION
     Species ID: CARBON DIOXIDE
     Coordinates (X,Y,Z):    1.000000E-03    1.000000E-03    4.311224E-02
     TEMPORAL STATISTIC: RUNNING AVERAGE
 354 ID: X_CO2
     QUANTITY: VOLUME FRACTION
     Species ID: CARBON DIOXIDE
     Coordinates (X,Y,Z):    1.000000E-03    1.000000E-03    6.341837E-02
     TEMPORAL STATISTIC: RUNNING AVERAGE
 355 ID: X_CO2
     QUANTITY: VOLUME FRACTION
     Species ID: CARBON DIOXIDE
     Coordinates (X,Y,Z):    1.000000E-03    1.000000E-03    8.372449E-02
     TEMPORAL STATISTIC: RUNNING AVERAGE
 356 ID: X_CO2
     QUANTITY: VOLUME FRACTION
     Species ID: CARBON DIOXIDE
     Coordinates (X,Y,Z):    1.000000E-03    1.000000E-03    1.040306E-01
     TEMPORAL STATISTIC: RUNNING AVERAGE
 357 ID: X_CO2
     QUANTITY: VOLUME FRACTION
     Species ID: CARBON DIOXIDE
     Coordinates (X,Y,Z):    1.000000E-03    1.000000E-03    1.243367E-01
     TEMPORAL STATISTIC: RUNNING AVERAGE
 358 ID: X_CO2
     QUANTITY: VOLUME FRACTION
     Species ID: CARBON DIOXIDE
     Coordinates (X,Y,Z):    1.000000E-03    1.000000E-03    1.446429E-01
     TEMPORAL STATISTIC: RUNNING AVERAGE
 359 ID: X_CO2
     QUANTITY: VOLUME FRACTION
     Species ID: CARBON DIOXIDE
     Coordinates (X,Y,Z):    1.000000E-03    1.000000E-03    1.649490E-01
     TEMPORAL STATISTIC: RUNNING AVERAGE
 360 ID: X_CO2
     QUANTITY: VOLUME FRACTION
     Species ID: CARBON DIOXIDE
     Coordinates (X,Y,Z):    1.000000E-03    1.000000E-03    1.852551E-01
     TEMPORAL STATISTIC: RUNNING AVERAGE
 361 ID: X_CO2
     QUANTITY: VOLUME FRACTION
     Species ID: CARBON DIOXIDE
     Coordinates (X,Y,Z):    1.000000E-03    1.000000E-03    2.055612E-01
     TEMPORAL STATISTIC: RUNNING AVERAGE
 362 ID: X_CO2
     QUANTITY: VOLUME FRACTION
     Species ID: CARBON DIOXIDE
     Coordinates (X,Y,Z):    1.000000E-03    1.000000E-03    2.258673E-01
     TEMPORAL STATISTIC: RUNNING AVERAGE
 363 ID: X_CO2
     QUANTITY: VOLUME FRACTION
     Species ID: CARBON DIOXIDE
     Coordinates (X,Y,Z):    1.000000E-03    1.000000E-03    2.461735E-01
     TEMPORAL STATISTIC: RUNNING AVERAGE
 364 ID: X_CO2
     QUANTITY: VOLUME FRACTION
     Species ID: CARBON DIOXIDE
     Coordinates (X,Y,Z):    1.000000E-03    1.000000E-03    2.664796E-01
     TEMPORAL STATISTIC: RUNNING AVERAGE
 365 ID: X_CO2
     QUANTITY: VOLUME FRACTION
     Species ID: CARBON DIOXIDE
     Coordinates (X,Y,Z):    1.000000E-03    1.000000E-03    2.867857E-01
     TEMPORAL STATISTIC: RUNNING AVERAGE
 366 ID: X_CO2
     QUANTITY: VOLUME FRACTION
     Species ID: CARBON DIOXIDE
     Coordinates (X,Y,Z):    1.000000E-03    1.000000E-03    3.070918E-01
     TEMPORAL STATISTIC: RUNNING AVERAGE
 367 ID: X_CO2
     QUANTITY: VOLUME FRACTION
     Species ID: CARBON DIOXIDE
     Coordinates (X,Y,Z):    1.000000E-03    1.000000E-03    3.273980E-01
     TEMPORAL STATISTIC: RUNNING AVERAGE
 368 ID: X_CO2
     QUANTITY: VOLUME FRACTION
     Species ID: CARBON DIOXIDE
     Coordinates (X,Y,Z):    1.000000E-03    1.000000E-03    3.477041E-01
     TEMPORAL STATISTIC: RUNNING AVERAGE
 369 ID: X_CO2
     QUANTITY: VOLUME FRACTION
     Species ID: CARBON DIOXIDE
     Coordinates (X,Y,Z):    1.000000E-03    1.000000E-03    3.680102E-01
     TEMPORAL STATISTIC: RUNNING AVERAGE
 370 ID: X_CO2
     QUANTITY: VOLUME FRACTION
     Species ID: CARBON DIOXIDE
     Coordinates (X,Y,Z):    1.000000E-03    1.000000E-03    3.883163E-01
     TEMPORAL STATISTIC: RUNNING AVERAGE
 371 ID: X_CO2
     QUANTITY: VOLUME FRACTION
     Species ID: CARBON DIOXIDE
     Coordinates (X,Y,Z):    1.000000E-03    1.000000E-03    4.086224E-01
     TEMPORAL STATISTIC: RUNNING AVERAGE
 372 ID: X_CO2
     QUANTITY: VOLUME FRACTION
     Species ID: CARBON DIOXIDE
     Coordinates (X,Y,Z):    1.000000E-03    1.000000E-03    4.289286E-01
     TEMPORAL STATISTIC: RUNNING AVERAGE
 373 ID: X_CO2
     QUANTITY: VOLUME FRACTION
     Species ID: CARBON DIOXIDE
     Coordinates (X,Y,Z):    1.000000E-03    1.000000E-03    4.492347E-01
     TEMPORAL STATISTIC: RUNNING AVERAGE
 374 ID: X_CO2
     QUANTITY: VOLUME FRACTION
     Species ID: CARBON DIOXIDE
     Coordinates (X,Y,Z):    1.000000E-03    1.000000E-03    4.695408E-01
     TEMPORAL STATISTIC: RUNNING AVERAGE
 375 ID: X_CO2
     QUANTITY: VOLUME FRACTION
     Species ID: CARBON DIOXIDE
     Coordinates (X,Y,Z):    1.000000E-03    1.000000E-03    4.898469E-01
     TEMPORAL STATISTIC: RUNNING AVERAGE
 376 ID: X_CO2
     QUANTITY: VOLUME FRACTION
     Species ID: CARBON DIOXIDE
     Coordinates (X,Y,Z):    1.000000E-03    1.000000E-03    5.101531E-01
     TEMPORAL STATISTIC: RUNNING AVERAGE
 377 ID: X_CO2
     QUANTITY: VOLUME FRACTION
     Species ID: CARBON DIOXIDE
     Coordinates (X,Y,Z):    1.000000E-03    1.000000E-03    5.304592E-01
     TEMPORAL STATISTIC: RUNNING AVERAGE
 378 ID: X_CO2
     QUANTITY: VOLUME FRACTION
     Species ID: CARBON DIOXIDE
     Coordinates (X,Y,Z):    1.000000E-03    1.000000E-03    5.507653E-01
     TEMPORAL STATISTIC: RUNNING AVERAGE
 379 ID: X_CO2
     QUANTITY: VOLUME FRACTION
     Species ID: CARBON DIOXIDE
     Coordinates (X,Y,Z):    1.000000E-03    1.000000E-03    5.710714E-01
     TEMPORAL STATISTIC: RUNNING AVERAGE
 380 ID: X_CO2
     QUANTITY: VOLUME FRACTION
     Species ID: CARBON DIOXIDE
     Coordinates (X,Y,Z):    1.000000E-03    1.000000E-03    5.913776E-01
     TEMPORAL STATISTIC: RUNNING AVERAGE
 381 ID: X_CO2
     QUANTITY: VOLUME FRACTION
     Species ID: CARBON DIOXIDE
     Coordinates (X,Y,Z):    1.000000E-03    1.000000E-03    6.116837E-01
     TEMPORAL STATISTIC: RUNNING AVERAGE
 382 ID: X_CO2
     QUANTITY: VOLUME FRACTION
     Species ID: CARBON DIOXIDE
[...]
 Time Step:  51800, Simulation Time:     43.41 s, Step Size: 0.00084 s, Pressure Iterations: 8
 Time Step:  51900, Simulation Time:     43.49 s, Step Size: 0.00083 s, Pressure Iterations: 10
 Time Step:  52000, Simulation Time:     43.58 s, Step Size: 0.00091 s, Pressure Iterations: 8
 Time Step:  52100, Simulation Time:     43.68 s, Step Size: 0.00088 s, Pressure Iterations: 8
 Time Step:  52200, Simulation Time:     43.76 s, Step Size: 0.00079 s, Pressure Iterations: 7
 Time Step:  52300, Simulation Time:     43.84 s, Step Size: 0.00079 s, Pressure Iterations: 10
 Time Step:  52400, Simulation Time:     43.92 s, Step Size: 0.00087 s, Pressure Iterations: 10
 Time Step:  52500, Simulation Time:     44.01 s, Step Size: 0.00096 s, Pressure Iterations: 8
 Time Step:  52600, Simulation Time:     44.10 s, Step Size: 0.00086 s, Pressure Iterations: 10
 Time Step:  52700, Simulation Time:     44.19 s, Step Size: 0.00084 s, Pressure Iterations: 10
 Time Step:  52800, Simulation Time:     44.28 s, Step Size: 0.00092 s, Pressure Iterations: 8
 Time Step:  52900, Simulation Time:     44.37 s, Step Size: 0.00083 s, Pressure Iterations: 10
 Time Step:  53000, Simulation Time:     44.44 s, Step Size: 0.00074 s, Pressure Iterations: 8
 Time Step:  53100, Simulation Time:     44.51 s, Step Size: 0.00064 s, Pressure Iterations: 7
 Time Step:  53200, Simulation Time:     44.58 s, Step Size: 0.00078 s, Pressure Iterations: 10
 Time Step:  53300, Simulation Time:     44.67 s, Step Size: 0.00075 s, Pressure Iterations: 9
 Time Step:  53400, Simulation Time:     44.74 s, Step Size: 0.00074 s, Pressure Iterations: 9
 Time Step:  53500, Simulation Time:     44.81 s, Step Size: 0.00065 s, Pressure Iterations: 7
 Time Step:  53600, Simulation Time:     44.88 s, Step Size: 0.00065 s, Pressure Iterations: 6
 Time Step:  53700, Simulation Time:     44.95 s, Step Size: 0.00079 s, Pressure Iterations: 10
 Time Step:  53800, Simulation Time:     45.04 s, Step Size: 0.00096 s, Pressure Iterations: 9
 Time Step:  53900, Simulation Time:     45.12 s, Step Size: 0.00073 s, Pressure Iterations: 7
 Time Step:  54000, Simulation Time:     45.20 s, Step Size: 0.00073 s, Pressure Iterations: 7
 Time Step:  54100, Simulation Time:     45.27 s, Step Size: 0.00080 s, Pressure Iterations: 10
 Time Step:  54200, Simulation Time:     45.36 s, Step Size: 0.00088 s, Pressure Iterations: 8
 Time Step:  54300, Simulation Time:     45.45 s, Step Size: 0.00088 s, Pressure Iterations: 8
 Time Step:  54400, Simulation Time:     45.53 s, Step Size: 0.00079 s, Pressure Iterations: 7
 Time Step:  54500, Simulation Time:     45.60 s, Step Size: 0.00062 s, Pressure Iterations: 10
 Time Step:  54600, Simulation Time:     45.68 s, Step Size: 0.00075 s, Pressure Iterations: 10
 Time Step:  54700, Simulation Time:     45.76 s, Step Size: 0.00072 s, Pressure Iterations: 8
 Time Step:  54800, Simulation Time:     45.83 s, Step Size: 0.00079 s, Pressure Iterations: 7
 Time Step:  54900, Simulation Time:     45.90 s, Step Size: 0.00070 s, Pressure Iterations: 7
 Time Step:  55000, Simulation Time:     45.97 s, Step Size: 0.00068 s, Pressure Iterations: 9
 Time Step:  55100, Simulation Time:     46.04 s, Step Size: 0.00083 s, Pressure Iterations: 10
 Time Step:  55200, Simulation Time:     46.12 s, Step Size: 0.00081 s, Pressure Iterations: 7
 Time Step:  55300, Simulation Time:     46.21 s, Step Size: 0.00088 s, Pressure Iterations: 9
 Time Step:  55400, Simulation Time:     46.29 s, Step Size: 0.00077 s, Pressure Iterations: 7
 Time Step:  55500, Simulation Time:     46.37 s, Step Size: 0.00093 s, Pressure Iterations: 10
 Time Step:  55600, Simulation Time:     46.46 s, Step Size: 0.00089 s, Pressure Iterations: 8
 Time Step:  55700, Simulation Time:     46.55 s, Step Size: 0.00097 s, Pressure Iterations: 9
 Time Step:  55800, Simulation Time:     46.64 s, Step Size: 0.00075 s, Pressure Iterations: 9
 Time Step:  55900, Simulation Time:     46.71 s, Step Size: 0.00080 s, Pressure Iterations: 7
 Time Step:  56000, Simulation Time:     46.79 s, Step Size: 0.00079 s, Pressure Iterations: 8
 Time Step:  56100, Simulation Time:     46.87 s, Step Size: 0.00080 s, Pressure Iterations: 10
 Time Step:  56200, Simulation Time:     46.95 s, Step Size: 0.00071 s, Pressure Iterations: 8
 Time Step:  56300, Simulation Time:     47.01 s, Step Size: 0.00073 s, Pressure Iterations: 7
 Time Step:  56400, Simulation Time:     47.10 s, Step Size: 0.00088 s, Pressure Iterations: 7
 Time Step:  56500, Simulation Time:     47.19 s, Step Size: 0.00107 s, Pressure Iterations: 10
 Time Step:  56600, Simulation Time:     47.29 s, Step Size: 0.00095 s, Pressure Iterations: 7
 Time Step:  56700, Simulation Time:     47.37 s, Step Size: 0.00082 s, Pressure Iterations: 10
 Time Step:  56800, Simulation Time:     47.46 s, Step Size: 0.00091 s, Pressure Iterations: 10
 Time Step:  56900, Simulation Time:     47.55 s, Step Size: 0.00091 s, Pressure Iterations: 7
 Time Step:  57000, Simulation Time:     47.64 s, Step Size: 0.00091 s, Pressure Iterations: 9
 Time Step:  57100, Simulation Time:     47.72 s, Step Size: 0.00078 s, Pressure Iterations: 8
 Time Step:  57200, Simulation Time:     47.79 s, Step Size: 0.00068 s, Pressure Iterations: 8
 Time Step:  57300, Simulation Time:     47.87 s, Step Size: 0.00078 s, Pressure Iterations: 10
 Time Step:  57400, Simulation Time:     47.96 s, Step Size: 0.00077 s, Pressure Iterations: 8
 Time Step:  57500, Simulation Time:     48.03 s, Step Size: 0.00075 s, Pressure Iterations: 7
 Time Step:  57600, Simulation Time:     48.11 s, Step Size: 0.00074 s, Pressure Iterations: 8
 Time Step:  57700, Simulation Time:     48.18 s, Step Size: 0.00081 s, Pressure Iterations: 8
 Time Step:  57800, Simulation Time:     48.26 s, Step Size: 0.00089 s, Pressure Iterations: 10
 Time Step:  57900, Simulation Time:     48.36 s, Step Size: 0.00086 s, Pressure Iterations: 9
 Time Step:  58000, Simulation Time:     48.44 s, Step Size: 0.00077 s, Pressure Iterations: 7
 Time Step:  58100, Simulation Time:     48.51 s, Step Size: 0.00076 s, Pressure Iterations: 10
 Time Step:  58200, Simulation Time:     48.59 s, Step Size: 0.00084 s, Pressure Iterations: 10
 Time Step:  58300, Simulation Time:     48.68 s, Step Size: 0.00084 s, Pressure Iterations: 9
 Time Step:  58400, Simulation Time:     48.75 s, Step Size: 0.00065 s, Pressure Iterations: 9
 Time Step:  58500, Simulation Time:     48.81 s, Step Size: 0.00057 s, Pressure Iterations: 7
 Time Step:  58600, Simulation Time:     48.88 s, Step Size: 0.00075 s, Pressure Iterations: 8
 Time Step:  58700, Simulation Time:     48.96 s, Step Size: 0.00083 s, Pressure Iterations: 8
 Time Step:  58800, Simulation Time:     49.05 s, Step Size: 0.00080 s, Pressure Iterations: 10
 Time Step:  58900, Simulation Time:     49.14 s, Step Size: 0.00080 s, Pressure Iterations: 9
 Time Step:  59000, Simulation Time:     49.22 s, Step Size: 0.00080 s, Pressure Iterations: 8
 Time Step:  59100, Simulation Time:     49.30 s, Step Size: 0.00088 s, Pressure Iterations: 10
 Time Step:  59200, Simulation Time:     49.38 s, Step Size: 0.00086 s, Pressure Iterations: 8
 Time Step:  59300, Simulation Time:     49.47 s, Step Size: 0.00077 s, Pressure Iterations: 8
 Time Step:  59400, Simulation Time:     49.55 s, Step Size: 0.00077 s, Pressure Iterations: 7
 Time Step:  59500, Simulation Time:     49.62 s, Step Size: 0.00084 s, Pressure Iterations: 10
 Time Step:  59600, Simulation Time:     49.71 s, Step Size: 0.00089 s, Pressure Iterations: 10
 Time Step:  59700, Simulation Time:     49.80 s, Step Size: 0.00089 s, Pressure Iterations: 10
 Time Step:  59800, Simulation Time:     49.88 s, Step Size: 0.00072 s, Pressure Iterations: 7
 Time Step:  59900, Simulation Time:     49.96 s, Step Size: 0.00087 s, Pressure Iterations: 8
 Time Step:  60000, Simulation Time:     50.05 s, Step Size: 0.00095 s, Pressure Iterations: 9
 Time Step:  60100, Simulation Time:     50.15 s, Step Size: 0.00084 s, Pressure Iterations: 10
 Time Step:  60200, Simulation Time:     50.24 s, Step Size: 0.00093 s, Pressure Iterations: 10
 Time Step:  60300, Simulation Time:     50.32 s, Step Size: 0.00083 s, Pressure Iterations: 8
 Time Step:  60400, Simulation Time:     50.40 s, Step Size: 0.00082 s, Pressure Iterations: 10
 Time Step:  60500, Simulation Time:     50.48 s, Step Size: 0.00090 s, Pressure Iterations: 10
 Time Step:  60600, Simulation Time:     50.56 s, Step Size: 0.00071 s, Pressure Iterations: 8
 Time Step:  60700, Simulation Time:     50.63 s, Step Size: 0.00071 s, Pressure Iterations: 7
 Time Step:  60800, Simulation Time:     50.70 s, Step Size: 0.00077 s, Pressure Iterations: 7
 Time Step:  60900, Simulation Time:     50.77 s, Step Size: 0.00082 s, Pressure Iterations: 10
 Time Step:  61000, Simulation Time:     50.86 s, Step Size: 0.00100 s, Pressure Iterations: 10
 Time Step:  61100, Simulation Time:     50.94 s, Step Size: 0.00064 s, Pressure Iterations: 8
 Time Step:  61200, Simulation Time:     51.01 s, Step Size: 0.00077 s, Pressure Iterations: 8
 Time Step:  61300, Simulation Time:     51.09 s, Step Size: 0.00076 s, Pressure Iterations: 8
 Time Step:  61400, Simulation Time:     51.17 s, Step Size: 0.00084 s, Pressure Iterations: 7
 Time Step:  61500, Simulation Time:     51.25 s, Step Size: 0.00091 s, Pressure Iterations: 10
 Time Step:  61600, Simulation Time:     51.33 s, Step Size: 0.00070 s, Pressure Iterations: 10
 Time Step:  61700, Simulation Time:     51.40 s, Step Size: 0.00069 s, Pressure Iterations: 7
 Time Step:  61800, Simulation Time:     51.47 s, Step Size: 0.00076 s, Pressure Iterations: 7
 Time Step:  61900, Simulation Time:     51.55 s, Step Size: 0.00091 s, Pressure Iterations: 8
 Time Step:  62000, Simulation Time:     51.65 s, Step Size: 0.00100 s, Pressure Iterations: 10
 Time Step:  62100, Simulation Time:     51.74 s, Step Size: 0.00079 s, Pressure Iterations: 7
 Time Step:  62200, Simulation Time:     51.82 s, Step Size: 0.00083 s, Pressure Iterations: 8
 Time Step:  62300, Simulation Time:     51.90 s, Step Size: 0.00075 s, Pressure Iterations: 10
 Time Step:  62400, Simulation Time:     51.98 s, Step Size: 0.00082 s, Pressure Iterations: 7
 Time Step:  62500, Simulation Time:     52.06 s, Step Size: 0.00082 s, Pressure Iterations: 10
 Time Step:  62600, Simulation Time:     52.14 s, Step Size: 0.00074 s, Pressure Iterations: 7
 Time Step:  62700, Simulation Time:     52.21 s, Step Size: 0.00081 s, Pressure Iterations: 7
 Time Step:  62800, Simulation Time:     52.30 s, Step Size: 0.00089 s, Pressure Iterations: 9
 Time Step:  62900, Simulation Time:     52.38 s, Step Size: 0.00088 s, Pressure Iterations: 8
 Time Step:  63000, Simulation Time:     52.47 s, Step Size: 0.00088 s, Pressure Iterations: 7
 Time Step:  63100, Simulation Time:     52.55 s, Step Size: 0.00074 s, Pressure Iterations: 6
 Time Step:  63200, Simulation Time:     52.63 s, Step Size: 0.00077 s, Pressure Iterations: 6
 Time Step:  63300, Simulation Time:     52.71 s, Step Size: 0.00094 s, Pressure Iterations: 9
 Time Step:  63400, Simulation Time:     52.80 s, Step Size: 0.00081 s, Pressure Iterations: 10
 Time Step:  63500, Simulation Time:     52.88 s, Step Size: 0.00080 s, Pressure Iterations: 10
 Time Step:  63600, Simulation Time:     52.96 s, Step Size: 0.00071 s, Pressure Iterations: 7
 Time Step:  63700, Simulation Time:     53.03 s, Step Size: 0.00085 s, Pressure Iterations: 8
 Time Step:  63800, Simulation Time:     53.12 s, Step Size: 0.00094 s, Pressure Iterations: 10
 Time Step:  63900, Simulation Time:     53.21 s, Step Size: 0.00084 s, Pressure Iterations: 9
 Time Step:  64000, Simulation Time:     53.28 s, Step Size: 0.00076 s, Pressure Iterations: 6
 Time Step:  64100, Simulation Time:     53.36 s, Step Size: 0.00082 s, Pressure Iterations: 8
 Time Step:  64200, Simulation Time:     53.44 s, Step Size: 0.00082 s, Pressure Iterations: 9
 Time Step:  64300, Simulation Time:     53.52 s, Step Size: 0.00074 s, Pressure Iterations: 8
 Time Step:  64400, Simulation Time:     53.60 s, Step Size: 0.00071 s, Pressure Iterations: 8
 Time Step:  64500, Simulation Time:     53.67 s, Step Size: 0.00069 s, Pressure Iterations: 7
 Time Step:  64600, Simulation Time:     53.73 s, Step Size: 0.00075 s, Pressure Iterations: 8
 Time Step:  64700, Simulation Time:     53.81 s, Step Size: 0.00082 s, Pressure Iterations: 10
 Time Step:  64800, Simulation Time:     53.90 s, Step Size: 0.00081 s, Pressure Iterations: 8
 Time Step:  64900, Simulation Time:     53.98 s, Step Size: 0.00081 s, Pressure Iterations: 8
 Time Step:  65000, Simulation Time:     54.06 s, Step Size: 0.00076 s, Pressure Iterations: 10
 Time Step:  65100, Simulation Time:     54.14 s, Step Size: 0.00084 s, Pressure Iterations: 10
 Time Step:  65200, Simulation Time:     54.22 s, Step Size: 0.00090 s, Pressure Iterations: 8
 Time Step:  65300, Simulation Time:     54.31 s, Step Size: 0.00090 s, Pressure Iterations: 7
 Time Step:  65400, Simulation Time:     54.39 s, Step Size: 0.00080 s, Pressure Iterations: 8
 Time Step:  65500, Simulation Time:     54.47 s, Step Size: 0.00071 s, Pressure Iterations: 7
 Time Step:  65600, Simulation Time:     54.55 s, Step Size: 0.00086 s, Pressure Iterations: 10
 Time Step:  65700, Simulation Time:     54.63 s, Step Size: 0.00076 s, Pressure Iterations: 7
 Time Step:  65800, Simulation Time:     54.72 s, Step Size: 0.00084 s, Pressure Iterations: 7
 Time Step:  65900, Simulation Time:     54.79 s, Step Size: 0.00074 s, Pressure Iterations: 8
 Time Step:  66000, Simulation Time:     54.87 s, Step Size: 0.00079 s, Pressure Iterations: 7
 Time Step:  66100, Simulation Time:     54.95 s, Step Size: 0.00096 s, Pressure Iterations: 8
 Time Step:  66200, Simulation Time:     55.04 s, Step Size: 0.00085 s, Pressure Iterations: 10
 Time Step:  66300, Simulation Time:     55.12 s, Step Size: 0.00076 s, Pressure Iterations: 7
 Time Step:  66400, Simulation Time:     55.19 s, Step Size: 0.00073 s, Pressure Iterations: 6
 Time Step:  66500, Simulation Time:     55.27 s, Step Size: 0.00089 s, Pressure Iterations: 10
 Time Step:  66600, Simulation Time:     55.36 s, Step Size: 0.00089 s, Pressure Iterations: 8
 Time Step:  66700, Simulation Time:     55.44 s, Step Size: 0.00080 s, Pressure Iterations: 8
 Time Step:  66800, Simulation Time:     55.52 s, Step Size: 0.00078 s, Pressure Iterations: 7
 Time Step:  66900, Simulation Time:     55.60 s, Step Size: 0.00085 s, Pressure Iterations: 10
 Time Step:  67000, Simulation Time:     55.68 s, Step Size: 0.00085 s, Pressure Iterations: 8
 Time Step:  67100, Simulation Time:     55.77 s, Step Size: 0.00094 s, Pressure Iterations: 8
 Time Step:  67200, Simulation Time:     55.86 s, Step Size: 0.00076 s, Pressure Iterations: 7
 Time Step:  67300, Simulation Time:     55.93 s, Step Size: 0.00076 s, Pressure Iterations: 7
 Time Step:  67400, Simulation Time:     56.02 s, Step Size: 0.00084 s, Pressure Iterations: 8
 Time Step:  67500, Simulation Time:     56.09 s, Step Size: 0.00081 s, Pressure Iterations: 8
 Time Step:  67600, Simulation Time:     56.17 s, Step Size: 0.00064 s, Pressure Iterations: 7
 Time Step:  67700, Simulation Time:     56.24 s, Step Size: 0.00070 s, Pressure Iterations: 7
 Time Step:  67800, Simulation Time:     56.32 s, Step Size: 0.00085 s, Pressure Iterations: 7
 Time Step:  67900, Simulation Time:     56.41 s, Step Size: 0.00093 s, Pressure Iterations: 8
 Time Step:  68000, Simulation Time:     56.49 s, Step Size: 0.00075 s, Pressure Iterations: 10
 Time Step:  68100, Simulation Time:     56.56 s, Step Size: 0.00067 s, Pressure Iterations: 7
 Time Step:  68200, Simulation Time:     56.63 s, Step Size: 0.00074 s, Pressure Iterations: 7
 Time Step:  68300, Simulation Time:     56.71 s, Step Size: 0.00089 s, Pressure Iterations: 10
 Time Step:  68400, Simulation Time:     56.80 s, Step Size: 0.00078 s, Pressure Iterations: 8
 Time Step:  68500, Simulation Time:     56.87 s, Step Size: 0.00078 s, Pressure Iterations: 7
 Time Step:  68600, Simulation Time:     56.95 s, Step Size: 0.00078 s, Pressure Iterations: 8
 Time Step:  68700, Simulation Time:     57.02 s, Step Size: 0.00070 s, Pressure Iterations: 7
 Time Step:  68800, Simulation Time:     57.10 s, Step Size: 0.00077 s, Pressure Iterations: 7
 Time Step:  68900, Simulation Time:     57.18 s, Step Size: 0.00093 s, Pressure Iterations: 8
 Time Step:  69000, Simulation Time:     57.27 s, Step Size: 0.00084 s, Pressure Iterations: 10
 Time Step:  69100, Simulation Time:     57.35 s, Step Size: 0.00082 s, Pressure Iterations: 7
 Time Step:  69200, Simulation Time:     57.43 s, Step Size: 0.00082 s, Pressure Iterations: 8
 Time Step:  69300, Simulation Time:     57.52 s, Step Size: 0.00090 s, Pressure Iterations: 10
 Time Step:  69400, Simulation Time:     57.61 s, Step Size: 0.00080 s, Pressure Iterations: 10
 Time Step:  69500, Simulation Time:     57.68 s, Step Size: 0.00070 s, Pressure Iterations: 7
 Time Step:  69600, Simulation Time:     57.75 s, Step Size: 0.00077 s, Pressure Iterations: 7
 Time Step:  69700, Simulation Time:     57.83 s, Step Size: 0.00084 s, Pressure Iterations: 6
 Time Step:  69800, Simulation Time:     57.92 s, Step Size: 0.00093 s, Pressure Iterations: 8
 Time Step:  69900, Simulation Time:     58.00 s, Step Size: 0.00075 s, Pressure Iterations: 9
 Time Step:  70000, Simulation Time:     58.08 s, Step Size: 0.00073 s, Pressure Iterations: 7
 Time Step:  70100, Simulation Time:     58.16 s, Step Size: 0.00086 s, Pressure Iterations: 8
 Time Step:  70200, Simulation Time:     58.25 s, Step Size: 0.00086 s, Pressure Iterations: 8
 Time Step:  70300, Simulation Time:     58.34 s, Step Size: 0.00094 s, Pressure Iterations: 10
 Time Step:  70400, Simulation Time:     58.41 s, Step Size: 0.00077 s, Pressure Iterations: 8
 Time Step:  70500, Simulation Time:     58.49 s, Step Size: 0.00076 s, Pressure Iterations: 7
 Time Step:  70600, Simulation Time:     58.57 s, Step Size: 0.00084 s, Pressure Iterations: 8
 Time Step:  70700, Simulation Time:     58.65 s, Step Size: 0.00101 s, Pressure Iterations: 10
 Time Step:  70800, Simulation Time:     58.74 s, Step Size: 0.00079 s, Pressure Iterations: 10
 Time Step:  70900, Simulation Time:     58.81 s, Step Size: 0.00067 s, Pressure Iterations: 7
 Time Step:  71000, Simulation Time:     58.88 s, Step Size: 0.00072 s, Pressure Iterations: 7
 Time Step:  71100, Simulation Time:     58.96 s, Step Size: 0.00079 s, Pressure Iterations: 7
 Time Step:  71200, Simulation Time:     59.04 s, Step Size: 0.00087 s, Pressure Iterations: 9
 Time Step:  71300, Simulation Time:     59.13 s, Step Size: 0.00085 s, Pressure Iterations: 8
 Time Step:  71400, Simulation Time:     59.22 s, Step Size: 0.00083 s, Pressure Iterations: 8
 Time Step:  71500, Simulation Time:     59.30 s, Step Size: 0.00083 s, Pressure Iterations: 8
 Time Step:  71600, Simulation Time:     59.38 s, Step Size: 0.00091 s, Pressure Iterations: 10
 Time Step:  71700, Simulation Time:     59.47 s, Step Size: 0.00070 s, Pressure Iterations: 10
 Time Step:  71800, Simulation Time:     59.54 s, Step Size: 0.00070 s, Pressure Iterations: 8
 Time Step:  71900, Simulation Time:     59.61 s, Step Size: 0.00070 s, Pressure Iterations: 7
 Time Step:  72000, Simulation Time:     59.68 s, Step Size: 0.00069 s, Pressure Iterations: 7
 Time Step:  72100, Simulation Time:     59.76 s, Step Size: 0.00084 s, Pressure Iterations: 10
 Time Step:  72200, Simulation Time:     59.84 s, Step Size: 0.00079 s, Pressure Iterations: 10
 Time Step:  72300, Simulation Time:     59.91 s, Step Size: 0.00063 s, Pressure Iterations: 8
 Time Step:  72400, Simulation Time:     59.98 s, Step Size: 0.00063 s, Pressure Iterations: 6
 Time Step:  72433, Simulation Time:     60.00 s, Step Size: 0.00041 s, Pressure Iterations: 7


 Time Stepping Wall Clock Time (s):    55803.524
 Total Elapsed Wall Clock Time (s):    55843.223

STOP: FDS completed successfully (CHID: NIST_Methane_GEOM_Prescribed_1cm_cat)
