
 Fire Dynamics Simulator

 Current Date     : August 17, 2023  12:18:43
 Revision         : FDS-6.8.0-564-g879930a-master
 Revision Date    : Wed Aug 16 13:01:02 2023 -0400
 Compiler         : ifort version 2021.7.1
 Compilation Date : Aug 16, 2023 16:23:58

 MPI Enabled;    Number of MPI Processes:       8
 OpenMP Disabled

 MPI version: 3.1
 MPI library version: Intel(R) MPI Library 2021.7 for Linux* OS


 Job TITLE        : (Concatenated) University of Waterloo Methanol Pool Burner, 1 cm resolution
 Job ID string    : Waterloo_Methanol_GEOM_Predicted_1cm_cat


 Grid Dimensions, Mesh     1

   Cells in the X Direction            30
   Cells in the Y Direction            30
   Cells in the Z Direction            40
   Number of Grid Cells             36000


 Physical Dimensions, Mesh     1

   Length (m)                       0.300
   Width  (m)                       0.300
   Height (m)                       0.400
   Initial Time Step (s)            0.018

 Grid Dimensions, Mesh     2

   Cells in the X Direction            30
   Cells in the Y Direction            30
   Cells in the Z Direction            40
   Number of Grid Cells             36000


 Physical Dimensions, Mesh     2

   Length (m)                       0.300
   Width  (m)                       0.300
   Height (m)                       0.400
   Initial Time Step (s)            0.018

 Grid Dimensions, Mesh     3

   Cells in the X Direction            30
   Cells in the Y Direction            30
   Cells in the Z Direction            40
   Number of Grid Cells             36000


 Physical Dimensions, Mesh     3

   Length (m)                       0.300
   Width  (m)                       0.300
   Height (m)                       0.400
   Initial Time Step (s)            0.018

 Grid Dimensions, Mesh     4

   Cells in the X Direction            30
   Cells in the Y Direction            30
   Cells in the Z Direction            40
   Number of Grid Cells             36000


 Physical Dimensions, Mesh     4

   Length (m)                       0.300
   Width  (m)                       0.300
   Height (m)                       0.400
   Initial Time Step (s)            0.018

 Grid Dimensions, Mesh     5

   Cells in the X Direction            30
   Cells in the Y Direction            30
   Cells in the Z Direction            40
   Number of Grid Cells             36000


 Physical Dimensions, Mesh     5

   Length (m)                       0.300
   Width  (m)                       0.300
   Height (m)                       0.400
   Initial Time Step (s)            0.018

 Grid Dimensions, Mesh     6

   Cells in the X Direction            30
   Cells in the Y Direction            30
   Cells in the Z Direction            40
   Number of Grid Cells             36000


 Physical Dimensions, Mesh     6

   Length (m)                       0.300
   Width  (m)                       0.300
   Height (m)                       0.400
   Initial Time Step (s)            0.018

 Grid Dimensions, Mesh     7

   Cells in the X Direction            30
   Cells in the Y Direction            30
   Cells in the Z Direction            40
   Number of Grid Cells             36000


 Physical Dimensions, Mesh     7

   Length (m)                       0.300
   Width  (m)                       0.300
   Height (m)                       0.400
   Initial Time Step (s)            0.018

 Grid Dimensions, Mesh     8

   Cells in the X Direction            30
   Cells in the Y Direction            30
   Cells in the Z Direction            40
   Number of Grid Cells             36000


 Physical Dimensions, Mesh     8

   Length (m)                       0.300
   Width  (m)                       0.300
   Height (m)                       0.400
   Initial Time Step (s)            0.018

 Total Number of Grid Cells        288000


 Maximum Cell Aspect Ratio          1.000
 CFL Velocity Norm                      1


 Miscellaneous Parameters

   Simulation Start Time (s)          0.0
   Simulation End Time (s)           60.0
   Background Pressure (Pa)     101325.00
   Ambient Temperature (C)          20.00

   3D Cartesian
   LES Calculation
   Eddy Viscosity Model:  Deardorff (C_DEARDORFF = 0.10)
   Surface INERT Eddy Viscosity Model:  WALE (C_WALE = 0.60)
   Surface PAN Eddy Viscosity Model:  WALE (C_WALE = 0.60)
   Surface POOL Eddy Viscosity Model:  WALE (C_WALE = 0.60)
   Turbulent Prandtl Number:         0.50
   Turbulent Schmidt Number:         0.50


 Pressure solver information

   Solver:                          ULMAT
   Velocity tolerance (m/s):    1.000E-03
   Press eqn res tol (1/s^2):   2.000E+05
   Max pressure iterations:            100


 Background Stratification

      Z (m)     P_0 (Pa)    TMP_0 (C)
   ------------------------------------
        0.34    101320.95     20.00
        0.33    101321.07     20.00
        0.32    101321.19     20.00
        0.31    101321.31     20.00
        0.30    101321.42     20.00
        0.29    101321.54     20.00
        0.28    101321.66     20.00
        0.27    101321.78     20.00
        0.26    101321.89     20.00
        0.25    101322.01     20.00
        0.24    101322.13     20.00
        0.23    101322.24     20.00
        0.22    101322.36     20.00
        0.21    101322.48     20.00
        0.20    101322.59     20.00
        0.19    101322.71     20.00
        0.18    101322.83     20.00
        0.17    101322.95     20.00
        0.16    101323.06     20.00
        0.15    101323.18     20.00
        0.14    101323.30     20.00
        0.13    101323.42     20.00
        0.12    101323.53     20.00
        0.11    101323.65     20.00
        0.10    101323.77     20.00
        0.09    101323.89     20.00
        0.08    101324.00     20.00
        0.07    101324.12     20.00
        0.06    101324.24     20.00
        0.05    101324.35     20.00
        0.04    101324.47     20.00
        0.03    101324.59     20.00
        0.02    101324.70     20.00
        0.01    101324.82     20.00
        0.00    101324.94     20.00
       -0.01    101325.06     20.00
       -0.02    101325.17     20.00
       -0.03    101325.29     20.00
       -0.04    101325.41     20.00
       -0.05    101325.53     20.00


 Mass Fraction Transformation Matrix to Convert Species Mixtures (Columns) to Primitive Species (Rows)

                         AIR       METHANOL  INTERMED  PRODUCTS
   NITROGEN              0.762470  0.000000  0.619236  0.660602
   OXYGEN                0.230997  0.000000  0.000000  0.000000
   CARBON DIOXIDE        0.000591  0.000000  0.000480  0.184016
   WATER VAPOR           0.005941  0.000000  0.216066  0.155382
   CARBON MONOXIDE       0.000000  0.000000  0.164218  0.000000
   SOOT                  0.000000  0.000000  0.000000  0.000000
   HYDROGEN              0.000000  0.000000  0.000000  0.000000
   HYDROGEN CYANIDE      0.000000  0.000000  0.000000  0.000000
   METHANOL              0.000000  1.000000  0.000000  0.000000


 Primitive Species Information

   NITROGEN
   Gas Species
   Molecular Weight (g/mol)                28.01340
   Ambient Density (kg/m^3)                1.165
           Enthalpy of Formation (J/kg)  0.000E+00

   OXYGEN
   Gas Species
   Molecular Weight (g/mol)                31.99880
   Ambient Density (kg/m^3)                1.330
           Enthalpy of Formation (J/kg)  0.000E+00

   CARBON DIOXIDE
   Gas Species
   Molecular Weight (g/mol)                44.00950
   Ambient Density (kg/m^3)                1.830
           Enthalpy of Formation (J/kg) -8.941E+06

   WATER VAPOR
   Gas Species
   Molecular Weight (g/mol)                18.01528
   Ambient Density (kg/m^3)                0.749
           Enthalpy of Formation (J/kg) -1.342E+07

   CARBON MONOXIDE
   Gas Species
   Molecular Weight (g/mol)                28.01010
   Ambient Density (kg/m^3)                1.164
           Enthalpy of Formation (J/kg) -3.946E+06

   SOOT
   Gas Species
   Molecular Weight (g/mol)                12.01070
   Ambient Density (kg/m^3)                0.499
           Enthalpy of Formation (J/kg)  0.000E+00

   HYDROGEN
   Gas Species
   Molecular Weight (g/mol)                 2.01588
   Ambient Density (kg/m^3)                0.084
           Enthalpy of Formation (J/kg)  0.000E+00

   HYDROGEN CYANIDE
   Gas Species
   Molecular Weight (g/mol)                27.02534
   Ambient Density (kg/m^3)                1.123
           Enthalpy of Formation (J/kg)  4.924E+06

   METHANOL
   Gas Species
   Molecular Weight (g/mol)                32.04186
   Ambient Density (kg/m^3)                1.332
           Enthalpy of Formation (J/kg) -6.271E+06


 Tracked (Lumped) Species Information

   AIR
   Molecular Weight (g/mol)            28.75198
   Ambient Density (kg/m^3)            1.195
   Initial Mass Fraction               1.000
   Enthalpy of Formation (J/kg)     -8.504E+04

   Sub Species                    Mass Fraction     Mole Fraction
   NITROGEN                       7.624699E-01      7.825727E-01
   OXYGEN                         2.309974E-01      2.075588E-01
   CARBON DIOXIDE                 5.914650E-04      3.864118E-04
   WATER VAPOR                    5.941209E-03      9.482037E-03
 
     Viscosity (kg/m/s) Ambient,  293 K:  1.796E-05
                                  500 K:  2.612E-05
                                 1000 K:  4.125E-05
                                 1500 K:  5.371E-05
                                 2000 K:  6.476E-05
   Therm. Cond. (W/m/K) Ambient,  293 K:  2.556E-02
                                  500 K:  3.814E-02
                                 1000 K:  6.686E-02
                                 1500 K:  9.249E-02
                                 2000 K:  1.153E-01
        Enthalpy (J/kg) Ambient,  293 K: -9.012E+04
                                  500 K:  1.222E+05
                                 1000 K:  6.721E+05
                                 1500 K:  1.270E+06
                                 2000 K:  1.896E+06
    Spec. Heat (J/kg/K) Ambient,  293 K:  1.016E+03
                                  500 K:  1.042E+03
                                 1000 K:  1.156E+03
                                 1500 K:  1.229E+03
                                 2000 K:  1.270E+03
   Diff. Coeff. (m^2/s) Ambient,  293 K:  1.991E-05
                                  500 K:  4.961E-05
                                 1000 K:  1.580E-04
                                 1500 K:  3.095E-04
                                 2000 K:  4.984E-04
 Gibbs Energy Amb. (kJ/mol),  293 K: -5.873E+01
                                  500 K: -1.007E+02
                                 1000 K: -2.117E+02
                                 1500 K: -3.312E+02
                                 2000 K: -4.568E+02

   METHANOL
   Molecular Weight (g/mol)            32.04186
   Ambient Density (kg/m^3)            1.332
   Initial Mass Fraction               0.000
   Enthalpy of Formation (J/kg)     -6.271E+06

   Sub Species                    Mass Fraction     Mole Fraction
   METHANOL                       1.000000E+00      1.000000E+00
 
     Viscosity (kg/m/s) Ambient,  293 K:  9.505E-06
                                  500 K:  1.644E-05
                                 1000 K:  3.130E-05
                                 1500 K:  4.324E-05
                                 2000 K:  5.347E-05
   Therm. Cond. (W/m/K) Ambient,  293 K:  1.365E-02
                                  500 K:  3.224E-02
                                 1000 K:  9.206E-02
                                 1500 K:  1.497E-01
                                 2000 K:  2.000E-01
        Enthalpy (J/kg) Ambient,  293 K: -6.278E+06
                                  500 K: -5.946E+06
                                 1000 K: -4.758E+06
                                 1500 K: -3.224E+06
                                 2000 K: -1.507E+06
    Spec. Heat (J/kg/K) Ambient,  293 K:  1.364E+03
                                  500 K:  1.863E+03
                                 1000 K:  2.794E+03
                                 1500 K:  3.289E+03
                                 2000 K:  3.553E+03
   Diff. Coeff. (m^2/s) Ambient,  293 K:  1.508E-05
                                  500 K:  4.034E-05
                                 1000 K:  1.345E-04
                                 1500 K:  2.667E-04
                                 2000 K:  4.310E-04
 Gibbs Energy Amb. (kJ/mol),  293 K: -2.712E+02
                                  500 K: -3.236E+02
                                 1000 K: -4.702E+02
                                 1500 K: -6.394E+02
                                 2000 K: -8.262E+02

   INTERMEDIATE PRODUCTS
   Molecular Weight (g/mol)            25.01739
   Ambient Density (kg/m^3)            1.040
   Initial Mass Fraction               0.000
   Enthalpy of Formation (J/kg)     -3.553E+06

   Sub Species                    Mass Fraction     Mole Fraction
   NITROGEN                       6.192356E-01      5.530090E-01
   CARBON DIOXIDE                 4.803549E-04      2.730599E-04
   WATER VAPOR                    2.160658E-01      3.000455E-01
   CARBON MONOXIDE                1.642182E-01      1.466725E-01
   SOOT                           0.000000E+00      0.000000E+00
   HYDROGEN                       0.000000E+00      0.000000E+00
   HYDROGEN CYANIDE               0.000000E+00      0.000000E+00
 
     Viscosity (kg/m/s) Ambient,  293 K:  1.563E-05
                                  500 K:  2.328E-05
                                 1000 K:  3.867E-05
                                 1500 K:  5.171E-05
                                 2000 K:  6.319E-05
   Therm. Cond. (W/m/K) Ambient,  293 K:  2.386E-02
                                  500 K:  3.661E-02
                                 1000 K:  6.938E-02
                                 1500 K:  1.020E-01
                                 2000 K:  1.319E-01
        Enthalpy (J/kg) Ambient,  293 K: -3.559E+06
                                  500 K: -3.304E+06
                                 1000 K: -2.639E+06
                                 1500 K: -1.897E+06
                                 2000 K: -1.102E+06
    Spec. Heat (J/kg/K) Ambient,  293 K:  1.218E+03
                                  500 K:  1.252E+03
                                 1000 K:  1.413E+03
                                 1500 K:  1.545E+03
                                 2000 K:  1.629E+03
   Diff. Coeff. (m^2/s) Ambient,  293 K:  2.018E-05
                                  500 K:  5.190E-05
                                 1000 K:  1.692E-04
                                 1500 K:  3.337E-04
                                 2000 K:  5.389E-04
 Gibbs Energy Amb. (kJ/mol),  293 K: -1.269E+02
                                  500 K: -1.683E+02
                                 1000 K: -2.783E+02
                                 1500 K: -3.973E+02
                                 2000 K: -5.226E+02

   PRODUCTS
   Molecular Weight (g/mol)            27.48164
   Ambient Density (kg/m^3)            1.142
   Initial Mass Fraction               0.000
   Enthalpy of Formation (J/kg)     -3.731E+06

   Sub Species                    Mass Fraction     Mole Fraction
   NITROGEN                       6.606015E-01      6.480618E-01
   CARBON DIOXIDE                 1.840164E-01      1.149087E-01
   WATER VAPOR                    1.553821E-01      2.370296E-01
   CARBON MONOXIDE                0.000000E+00      0.000000E+00
   SOOT                           0.000000E+00      0.000000E+00
   HYDROGEN CYANIDE               0.000000E+00      0.000000E+00
 
     Viscosity (kg/m/s) Ambient,  293 K:  1.569E-05
                                  500 K:  2.344E-05
                                 1000 K:  3.873E-05
                                 1500 K:  5.150E-05
                                 2000 K:  6.274E-05
   Therm. Cond. (W/m/K) Ambient,  293 K:  2.304E-02
                                  500 K:  3.600E-02
                                 1000 K:  6.817E-02
                                 1500 K:  9.916E-02
                                 2000 K:  1.273E-01
        Enthalpy (J/kg) Ambient,  293 K: -3.737E+06
                                  500 K: -3.497E+06
                                 1000 K: -2.861E+06
                                 1500 K: -2.152E+06
                                 2000 K: -1.395E+06
    Spec. Heat (J/kg/K) Ambient,  293 K:  1.131E+03
                                  500 K:  1.188E+03
                                 1000 K:  1.354E+03
                                 1500 K:  1.474E+03
                                 2000 K:  1.547E+03
   Diff. Coeff. (m^2/s) Ambient,  293 K:  1.958E-05
                                  500 K:  5.013E-05
                                 1000 K:  1.629E-04
                                 1500 K:  3.209E-04
                                 2000 K:  5.180E-04
 Gibbs Energy Amb. (kJ/mol),  293 K: -1.672E+02
                                  500 K: -2.094E+02
                                 1000 K: -3.221E+02
                                 1500 K: -4.445E+02
                                 2000 K: -5.739E+02


 Gas Phase Reaction Information

   Reaction 1

      Priority:                                                               1

      Fuel                                           Heat of Combustion (kJ/kg)
      METHANOL                                                       12272.9204
      2-step reaction,  Total Heat of Combustion                     21104.3304

      Primitive Species Stoich. Coeff.
      Species ID                                                          Molar
      OXYGEN                                                          -1.000000
      WATER VAPOR                                                      2.000000
      CARBON MONOXIDE                                                  1.000000
      METHANOL                                                        -1.000000

      Tracked (Lumped) Species Stoich. Coeff.
      Species ID                                             Molar         Mass
      AIR                                                -4.817911    -4.323236
      METHANOL                                           -1.000000    -1.000000
      INTERMEDIATE PRODUCTS                               6.817911     5.323236

      Reaction Kinetics

      Fast chemistry

      ODE Solver:  EXPLICIT EULER

      Extinction Model:  EXTINCTION 2
      Auto-Ignition Temperature (C):            -273.1
      Critical Flame Temperature (C):           1257.0

      Prescribed Radiative Fraction:             0.220

   Reaction 2

      Priority:                                                               2

      Fuel                                           Heat of Combustion (kJ/kg)
      INTERMEDIATE PRODUCTS                                           1659.0305

      Primitive Species Stoich. Coeff.
      Species ID                                                          Molar
      OXYGEN                                                          -0.073336
      CARBON DIOXIDE                                                   0.146672
      CARBON MONOXIDE                                                 -0.146672

      Tracked (Lumped) Species Stoich. Coeff.
      Species ID                                             Molar         Mass
      AIR                                                -0.353328    -0.406072
      INTERMEDIATE PRODUCTS                              -1.000000    -1.000000
      PRODUCTS                                            1.279991     1.406072

      Reaction Kinetics

      Fast chemistry

      ODE Solver:  EXPLICIT EULER

      Prescribed Radiative Fraction:             0.220


 Material Information

   1 STEEL
     Emissivity:                                  0.800
     Density (kg/m3):                            7800.0
     Specific Heat (kJ/kg/K) Ambient,  293 K:  4.650E-01
                                       350 K:  4.650E-01
                                       500 K:  4.650E-01
                                       800 K:  4.650E-01
     Therm. Cond. (W/m/K) Ambient,     293 K:  5.400E+01
                                       350 K:  5.400E+01
                                       500 K:  5.400E+01
                                       800 K:  5.400E+01
     Enthalpy (kJ/kg) Ambient,         293 K:  1.362E+02
                                       350 K:  1.628E+02
                                       500 K:  2.325E+02
                                       800 K:  3.720E+02

   2 METHANOL LIQUID
     Emissivity:                                  1.000
     Density (kg/m3):                             796.0
     Specific Heat (kJ/kg/K) Ambient,  293 K:  2.480E+00
                                       350 K:  2.480E+00
                                       500 K:  2.480E+00
                                       800 K:  2.480E+00
     Therm. Cond. (W/m/K) Ambient,     293 K:  2.000E-01
                                       350 K:  2.000E-01
                                       500 K:  2.000E-01
                                       800 K:  2.000E-01
     Enthalpy (kJ/kg) Ambient,         293 K: -7.425E+03
                                       350 K: -7.284E+03
                                       500 K: -6.912E+03
                                       800 K: -6.168E+03
     Absorption coefficient (1/m)  1500.00
     Liquid evaporation reaction
        Gaseous Yields:
        AIR                                                         :     0.00
        METHANOL                                                    :     1.00
        INTERMEDIATE PRODUCTS                                       :     0.00
        PRODUCTS                                                    :     0.00
        Boiling temperature (C):    64.65
        H_R (kJ/kg)            :  1.147E+03


 Surface Conditions

   0 INERT (DEFAULT)

   1 PAN
     Material List
          1  STEEL
     Layer  1
        Thickness   (m):  0.00300
        Density (kg/m3):  7800.00
        STEEL, Mass fraction:    1.00
     Reaction products considered from the first  0.50 layers.
     Total surface density    23.400 kg/m2
     Solid Phase Node, Layer, Coordinates(m):
                    0      1       0.0000000
                    1      1       0.0030000
     Exposed Backing

   2 POOL
     Material List
          1  METHANOL LIQUID
     Layer  1
        Thickness   (m):  0.15000
        Density (kg/m3):   796.00
        METHANOL LIQUID, Mass fraction:    1.00
     Reaction products considered from the first  0.50 layers.
     Total surface density   119.400 kg/m2
     Solid Phase Node, Layer, Coordinates(m):
                    0      1       0.0000000
                    1      1       0.0002941
                    2      1       0.0008824
                    3      1       0.0020588
                    4      1       0.0044118
                    5      1       0.0091176
                    6      1       0.0185294
                    7      1       0.0373529
                    8      1       0.0750000
                    9      1       0.1126471
                   10      1       0.1314706
                   11      1       0.1408824
                   12      1       0.1455882
                   13      1       0.1479412
                   14      1       0.1491176
                   15      1       0.1497059
                   16      1       0.1500000
     Exposed Backing

   3 OPEN
     Passive Vent to Atmosphere

   4 MIRROR
     Symmetry Plane

   5 INTERPOLATED

   6 PERIODIC

   7 HVAC

   8 MASSLESS TRACER

   9 DROPLET

  10 MASSLESS TARGET

  11 PERIODIC FLOW ONLY


 Lagrangian Particle Classes


 PROPerty Information

   1 TC
     Smokeview ID                sensor


 Cut-off Density and Temperature

    Minimum Temperature:  -259.1 C
    Maximum Temperature:  2726.8 C
    Minimum Density:  1.195E-01 kg/m3
    Maximum Density:  5.578E+01 kg/m3


 Device Information

   1 ID: Up2
     QUANTITY: RADIAL VELOCITY
     Coordinates (X,Y,Z):   -4.000000E-02   -1.000000E-04    2.000000E-02
     TEMPORAL STATISTIC: RUNNING AVERAGE
   2 ID: Up2
     QUANTITY: RADIAL VELOCITY
     Coordinates (X,Y,Z):   -3.000000E-02   -1.000000E-04    2.000000E-02
     TEMPORAL STATISTIC: RUNNING AVERAGE
   3 ID: Up2
     QUANTITY: RADIAL VELOCITY
     Coordinates (X,Y,Z):   -2.000000E-02   -1.000000E-04    2.000000E-02
     TEMPORAL STATISTIC: RUNNING AVERAGE
   4 ID: Up2
     QUANTITY: RADIAL VELOCITY
     Coordinates (X,Y,Z):   -1.000000E-02   -1.000000E-04    2.000000E-02
     TEMPORAL STATISTIC: RUNNING AVERAGE
   5 ID: Up2
     QUANTITY: RADIAL VELOCITY
     Coordinates (X,Y,Z):   -1.000000E-04   -1.000000E-04    2.000000E-02
     TEMPORAL STATISTIC: RUNNING AVERAGE
   6 ID: Up2
     QUANTITY: RADIAL VELOCITY
     Coordinates (X,Y,Z):    1.000000E-02   -1.000000E-04    2.000000E-02
     TEMPORAL STATISTIC: RUNNING AVERAGE
   7 ID: Up2
     QUANTITY: RADIAL VELOCITY
     Coordinates (X,Y,Z):    2.000000E-02   -1.000000E-04    2.000000E-02
     TEMPORAL STATISTIC: RUNNING AVERAGE
   8 ID: Up2
     QUANTITY: RADIAL VELOCITY
     Coordinates (X,Y,Z):    3.000000E-02   -1.000000E-04    2.000000E-02
     TEMPORAL STATISTIC: RUNNING AVERAGE
   9 ID: Up2
     QUANTITY: RADIAL VELOCITY
     Coordinates (X,Y,Z):    4.000000E-02   -1.000000E-04    2.000000E-02
     TEMPORAL STATISTIC: RUNNING AVERAGE
  10 ID: Up2
     QUANTITY: RADIAL VELOCITY
     Coordinates (X,Y,Z):    5.000000E-02   -1.000000E-04    2.000000E-02
     TEMPORAL STATISTIC: RUNNING AVERAGE
  11 ID: Up2
     QUANTITY: RADIAL VELOCITY
     Coordinates (X,Y,Z):    6.000000E-02   -1.000000E-04    2.000000E-02
     TEMPORAL STATISTIC: RUNNING AVERAGE
  12 ID: Up2
     QUANTITY: RADIAL VELOCITY
     Coordinates (X,Y,Z):    7.000000E-02   -1.000000E-04    2.000000E-02
     TEMPORAL STATISTIC: RUNNING AVERAGE
  13 ID: Up2
     QUANTITY: RADIAL VELOCITY
     Coordinates (X,Y,Z):    8.000000E-02   -1.000000E-04    2.000000E-02
     TEMPORAL STATISTIC: RUNNING AVERAGE
  14 ID: Up2
     QUANTITY: RADIAL VELOCITY
     Coordinates (X,Y,Z):    9.000000E-02   -1.000000E-04    2.000000E-02
     TEMPORAL STATISTIC: RUNNING AVERAGE
  15 ID: Up2
     QUANTITY: RADIAL VELOCITY
     Coordinates (X,Y,Z):    1.000000E-01   -1.000000E-04    2.000000E-02
     TEMPORAL STATISTIC: RUNNING AVERAGE
  16 ID: Up2
     QUANTITY: RADIAL VELOCITY
     Coordinates (X,Y,Z):    1.100000E-01   -1.000000E-04    2.000000E-02
     TEMPORAL STATISTIC: RUNNING AVERAGE
  17 ID: Up2
     QUANTITY: RADIAL VELOCITY
     Coordinates (X,Y,Z):    1.200000E-01   -1.000000E-04    2.000000E-02
     TEMPORAL STATISTIC: RUNNING AVERAGE
  18 ID: Up2
     QUANTITY: RADIAL VELOCITY
     Coordinates (X,Y,Z):    1.300000E-01   -1.000000E-04    2.000000E-02
     TEMPORAL STATISTIC: RUNNING AVERAGE
  19 ID: Up2
     QUANTITY: RADIAL VELOCITY
     Coordinates (X,Y,Z):    1.400000E-01   -1.000000E-04    2.000000E-02
     TEMPORAL STATISTIC: RUNNING AVERAGE
  20 ID: Up2
     QUANTITY: RADIAL VELOCITY
     Coordinates (X,Y,Z):    1.500000E-01   -1.000000E-04    2.000000E-02
     TEMPORAL STATISTIC: RUNNING AVERAGE
  21 ID: Up2
     QUANTITY: RADIAL VELOCITY
     Coordinates (X,Y,Z):    1.600000E-01   -1.000000E-04    2.000000E-02
     TEMPORAL STATISTIC: RUNNING AVERAGE
  22 ID: Up4
     QUANTITY: RADIAL VELOCITY
     Coordinates (X,Y,Z):   -4.000000E-02   -1.000000E-04    4.000000E-02
     TEMPORAL STATISTIC: RUNNING AVERAGE
  23 ID: Up4
     QUANTITY: RADIAL VELOCITY
     Coordinates (X,Y,Z):   -3.000000E-02   -1.000000E-04    4.000000E-02
     TEMPORAL STATISTIC: RUNNING AVERAGE
  24 ID: Up4
     QUANTITY: RADIAL VELOCITY
     Coordinates (X,Y,Z):   -2.000000E-02   -1.000000E-04    4.000000E-02
     TEMPORAL STATISTIC: RUNNING AVERAGE
  25 ID: Up4
     QUANTITY: RADIAL VELOCITY
     Coordinates (X,Y,Z):   -1.000000E-02   -1.000000E-04    4.000000E-02
     TEMPORAL STATISTIC: RUNNING AVERAGE
  26 ID: Up4
     QUANTITY: RADIAL VELOCITY
     Coordinates (X,Y,Z):   -1.000000E-04   -1.000000E-04    4.000000E-02
     TEMPORAL STATISTIC: RUNNING AVERAGE
  27 ID: Up4
     QUANTITY: RADIAL VELOCITY
     Coordinates (X,Y,Z):    1.000000E-02   -1.000000E-04    4.000000E-02
     TEMPORAL STATISTIC: RUNNING AVERAGE
  28 ID: Up4
     QUANTITY: RADIAL VELOCITY
     Coordinates (X,Y,Z):    2.000000E-02   -1.000000E-04    4.000000E-02
     TEMPORAL STATISTIC: RUNNING AVERAGE
  29 ID: Up4
     QUANTITY: RADIAL VELOCITY
     Coordinates (X,Y,Z):    3.000000E-02   -1.000000E-04    4.000000E-02
     TEMPORAL STATISTIC: RUNNING AVERAGE
  30 ID: Up4
     QUANTITY: RADIAL VELOCITY
     Coordinates (X,Y,Z):    4.000000E-02   -1.000000E-04    4.000000E-02
     TEMPORAL STATISTIC: RUNNING AVERAGE
  31 ID: Up4
     QUANTITY: RADIAL VELOCITY
     Coordinates (X,Y,Z):    5.000000E-02   -1.000000E-04    4.000000E-02
     TEMPORAL STATISTIC: RUNNING AVERAGE
  32 ID: Up4
     QUANTITY: RADIAL VELOCITY
     Coordinates (X,Y,Z):    6.000000E-02   -1.000000E-04    4.000000E-02
     TEMPORAL STATISTIC: RUNNING AVERAGE
  33 ID: Up4
     QUANTITY: RADIAL VELOCITY
     Coordinates (X,Y,Z):    7.000000E-02   -1.000000E-04    4.000000E-02
     TEMPORAL STATISTIC: RUNNING AVERAGE
  34 ID: Up4
     QUANTITY: RADIAL VELOCITY
     Coordinates (X,Y,Z):    8.000000E-02   -1.000000E-04    4.000000E-02
     TEMPORAL STATISTIC: RUNNING AVERAGE
  35 ID: Up4
     QUANTITY: RADIAL VELOCITY
     Coordinates (X,Y,Z):    9.000000E-02   -1.000000E-04    4.000000E-02
     TEMPORAL STATISTIC: RUNNING AVERAGE
  36 ID: Up4
     QUANTITY: RADIAL VELOCITY
     Coordinates (X,Y,Z):    1.000000E-01   -1.000000E-04    4.000000E-02
     TEMPORAL STATISTIC: RUNNING AVERAGE
  37 ID: Up4
     QUANTITY: RADIAL VELOCITY
     Coordinates (X,Y,Z):    1.100000E-01   -1.000000E-04    4.000000E-02
     TEMPORAL STATISTIC: RUNNING AVERAGE
  38 ID: Up4
     QUANTITY: RADIAL VELOCITY
     Coordinates (X,Y,Z):    1.200000E-01   -1.000000E-04    4.000000E-02
     TEMPORAL STATISTIC: RUNNING AVERAGE
  39 ID: Up4
     QUANTITY: RADIAL VELOCITY
     Coordinates (X,Y,Z):    1.300000E-01   -1.000000E-04    4.000000E-02
     TEMPORAL STATISTIC: RUNNING AVERAGE
  40 ID: Up4
     QUANTITY: RADIAL VELOCITY
     Coordinates (X,Y,Z):    1.400000E-01   -1.000000E-04    4.000000E-02
     TEMPORAL STATISTIC: RUNNING AVERAGE
  41 ID: Up4
     QUANTITY: RADIAL VELOCITY
     Coordinates (X,Y,Z):    1.500000E-01   -1.000000E-04    4.000000E-02
     TEMPORAL STATISTIC: RUNNING AVERAGE
  42 ID: Up4
     QUANTITY: RADIAL VELOCITY
     Coordinates (X,Y,Z):    1.600000E-01   -1.000000E-04    4.000000E-02
     TEMPORAL STATISTIC: RUNNING AVERAGE
  43 ID: Up6
     QUANTITY: RADIAL VELOCITY
     Coordinates (X,Y,Z):   -4.000000E-02   -1.000000E-04    6.000000E-02
     TEMPORAL STATISTIC: RUNNING AVERAGE
  44 ID: Up6
     QUANTITY: RADIAL VELOCITY
     Coordinates (X,Y,Z):   -3.000000E-02   -1.000000E-04    6.000000E-02
     TEMPORAL STATISTIC: RUNNING AVERAGE
  45 ID: Up6
     QUANTITY: RADIAL VELOCITY
     Coordinates (X,Y,Z):   -2.000000E-02   -1.000000E-04    6.000000E-02
     TEMPORAL STATISTIC: RUNNING AVERAGE
  46 ID: Up6
     QUANTITY: RADIAL VELOCITY
     Coordinates (X,Y,Z):   -1.000000E-02   -1.000000E-04    6.000000E-02
     TEMPORAL STATISTIC: RUNNING AVERAGE
  47 ID: Up6
     QUANTITY: RADIAL VELOCITY
     Coordinates (X,Y,Z):   -1.000000E-04   -1.000000E-04    6.000000E-02
     TEMPORAL STATISTIC: RUNNING AVERAGE
  48 ID: Up6
     QUANTITY: RADIAL VELOCITY
     Coordinates (X,Y,Z):    1.000000E-02   -1.000000E-04    6.000000E-02
     TEMPORAL STATISTIC: RUNNING AVERAGE
  49 ID: Up6
     QUANTITY: RADIAL VELOCITY
     Coordinates (X,Y,Z):    2.000000E-02   -1.000000E-04    6.000000E-02
     TEMPORAL STATISTIC: RUNNING AVERAGE
  50 ID: Up6
     QUANTITY: RADIAL VELOCITY
     Coordinates (X,Y,Z):    3.000000E-02   -1.000000E-04    6.000000E-02
     TEMPORAL STATISTIC: RUNNING AVERAGE
  51 ID: Up6
     QUANTITY: RADIAL VELOCITY
     Coordinates (X,Y,Z):    4.000000E-02   -1.000000E-04    6.000000E-02
     TEMPORAL STATISTIC: RUNNING AVERAGE
  52 ID: Up6
     QUANTITY: RADIAL VELOCITY
     Coordinates (X,Y,Z):    5.000000E-02   -1.000000E-04    6.000000E-02
     TEMPORAL STATISTIC: RUNNING AVERAGE
  53 ID: Up6
     QUANTITY: RADIAL VELOCITY
     Coordinates (X,Y,Z):    6.000000E-02   -1.000000E-04    6.000000E-02
     TEMPORAL STATISTIC: RUNNING AVERAGE
  54 ID: Up6
     QUANTITY: RADIAL VELOCITY
     Coordinates (X,Y,Z):    7.000000E-02   -1.000000E-04    6.000000E-02
     TEMPORAL STATISTIC: RUNNING AVERAGE
  55 ID: Up6
     QUANTITY: RADIAL VELOCITY
     Coordinates (X,Y,Z):    8.000000E-02   -1.000000E-04    6.000000E-02
     TEMPORAL STATISTIC: RUNNING AVERAGE
  56 ID: Up6
     QUANTITY: RADIAL VELOCITY
     Coordinates (X,Y,Z):    9.000000E-02   -1.000000E-04    6.000000E-02
     TEMPORAL STATISTIC: RUNNING AVERAGE
  57 ID: Up6
     QUANTITY: RADIAL VELOCITY
     Coordinates (X,Y,Z):    1.000000E-01   -1.000000E-04    6.000000E-02
     TEMPORAL STATISTIC: RUNNING AVERAGE
  58 ID: Up6
     QUANTITY: RADIAL VELOCITY
     Coordinates (X,Y,Z):    1.100000E-01   -1.000000E-04    6.000000E-02
     TEMPORAL STATISTIC: RUNNING AVERAGE
  59 ID: Up6
     QUANTITY: RADIAL VELOCITY
     Coordinates (X,Y,Z):    1.200000E-01   -1.000000E-04    6.000000E-02
     TEMPORAL STATISTIC: RUNNING AVERAGE
  60 ID: Up6
     QUANTITY: RADIAL VELOCITY
     Coordinates (X,Y,Z):    1.300000E-01   -1.000000E-04    6.000000E-02
     TEMPORAL STATISTIC: RUNNING AVERAGE
  61 ID: Up6
     QUANTITY: RADIAL VELOCITY
     Coordinates (X,Y,Z):    1.400000E-01   -1.000000E-04    6.000000E-02
     TEMPORAL STATISTIC: RUNNING AVERAGE
  62 ID: Up6
     QUANTITY: RADIAL VELOCITY
     Coordinates (X,Y,Z):    1.500000E-01   -1.000000E-04    6.000000E-02
     TEMPORAL STATISTIC: RUNNING AVERAGE
  63 ID: Up6
     QUANTITY: RADIAL VELOCITY
     Coordinates (X,Y,Z):    1.600000E-01   -1.000000E-04    6.000000E-02
     TEMPORAL STATISTIC: RUNNING AVERAGE
  64 ID: Up8
     QUANTITY: RADIAL VELOCITY
     Coordinates (X,Y,Z):   -4.000000E-02   -1.000000E-04    8.000000E-02
     TEMPORAL STATISTIC: RUNNING AVERAGE
  65 ID: Up8
     QUANTITY: RADIAL VELOCITY
     Coordinates (X,Y,Z):   -3.000000E-02   -1.000000E-04    8.000000E-02
     TEMPORAL STATISTIC: RUNNING AVERAGE
  66 ID: Up8
     QUANTITY: RADIAL VELOCITY
     Coordinates (X,Y,Z):   -2.000000E-02   -1.000000E-04    8.000000E-02
     TEMPORAL STATISTIC: RUNNING AVERAGE
  67 ID: Up8
     QUANTITY: RADIAL VELOCITY
     Coordinates (X,Y,Z):   -1.000000E-02   -1.000000E-04    8.000000E-02
     TEMPORAL STATISTIC: RUNNING AVERAGE
  68 ID: Up8
     QUANTITY: RADIAL VELOCITY
     Coordinates (X,Y,Z):   -1.000000E-04   -1.000000E-04    8.000000E-02
     TEMPORAL STATISTIC: RUNNING AVERAGE
  69 ID: Up8
     QUANTITY: RADIAL VELOCITY
     Coordinates (X,Y,Z):    1.000000E-02   -1.000000E-04    8.000000E-02
     TEMPORAL STATISTIC: RUNNING AVERAGE
  70 ID: Up8
     QUANTITY: RADIAL VELOCITY
     Coordinates (X,Y,Z):    2.000000E-02   -1.000000E-04    8.000000E-02
     TEMPORAL STATISTIC: RUNNING AVERAGE
  71 ID: Up8
     QUANTITY: RADIAL VELOCITY
     Coordinates (X,Y,Z):    3.000000E-02   -1.000000E-04    8.000000E-02
     TEMPORAL STATISTIC: RUNNING AVERAGE
  72 ID: Up8
     QUANTITY: RADIAL VELOCITY
     Coordinates (X,Y,Z):    4.000000E-02   -1.000000E-04    8.000000E-02
     TEMPORAL STATISTIC: RUNNING AVERAGE
  73 ID: Up8
     QUANTITY: RADIAL VELOCITY
     Coordinates (X,Y,Z):    5.000000E-02   -1.000000E-04    8.000000E-02
     TEMPORAL STATISTIC: RUNNING AVERAGE
  74 ID: Up8
     QUANTITY: RADIAL VELOCITY
     Coordinates (X,Y,Z):    6.000000E-02   -1.000000E-04    8.000000E-02
     TEMPORAL STATISTIC: RUNNING AVERAGE
  75 ID: Up8
     QUANTITY: RADIAL VELOCITY
     Coordinates (X,Y,Z):    7.000000E-02   -1.000000E-04    8.000000E-02
     TEMPORAL STATISTIC: RUNNING AVERAGE
  76 ID: Up8
     QUANTITY: RADIAL VELOCITY
     Coordinates (X,Y,Z):    8.000000E-02   -1.000000E-04    8.000000E-02
     TEMPORAL STATISTIC: RUNNING AVERAGE
  77 ID: Up8
     QUANTITY: RADIAL VELOCITY
     Coordinates (X,Y,Z):    9.000000E-02   -1.000000E-04    8.000000E-02
     TEMPORAL STATISTIC: RUNNING AVERAGE
  78 ID: Up8
     QUANTITY: RADIAL VELOCITY
     Coordinates (X,Y,Z):    1.000000E-01   -1.000000E-04    8.000000E-02
     TEMPORAL STATISTIC: RUNNING AVERAGE
  79 ID: Up8
     QUANTITY: RADIAL VELOCITY
     Coordinates (X,Y,Z):    1.100000E-01   -1.000000E-04    8.000000E-02
     TEMPORAL STATISTIC: RUNNING AVERAGE
  80 ID: Up8
     QUANTITY: RADIAL VELOCITY
     Coordinates (X,Y,Z):    1.200000E-01   -1.000000E-04    8.000000E-02
     TEMPORAL STATISTIC: RUNNING AVERAGE
  81 ID: Up8
     QUANTITY: RADIAL VELOCITY
     Coordinates (X,Y,Z):    1.300000E-01   -1.000000E-04    8.000000E-02
     TEMPORAL STATISTIC: RUNNING AVERAGE
  82 ID: Up8
     QUANTITY: RADIAL VELOCITY
     Coordinates (X,Y,Z):    1.400000E-01   -1.000000E-04    8.000000E-02
     TEMPORAL STATISTIC: RUNNING AVERAGE
  83 ID: Up8
     QUANTITY: RADIAL VELOCITY
     Coordinates (X,Y,Z):    1.500000E-01   -1.000000E-04    8.000000E-02
     TEMPORAL STATISTIC: RUNNING AVERAGE
  84 ID: Up8
     QUANTITY: RADIAL VELOCITY
     Coordinates (X,Y,Z):    1.600000E-01   -1.000000E-04    8.000000E-02
     TEMPORAL STATISTIC: RUNNING AVERAGE
  85 ID: Up10
     QUANTITY: RADIAL VELOCITY
     Coordinates (X,Y,Z):   -4.000000E-02   -1.000000E-04    1.000000E-01
     TEMPORAL STATISTIC: RUNNING AVERAGE
  86 ID: Up10
     QUANTITY: RADIAL VELOCITY
     Coordinates (X,Y,Z):   -3.000000E-02   -1.000000E-04    1.000000E-01
     TEMPORAL STATISTIC: RUNNING AVERAGE
  87 ID: Up10
     QUANTITY: RADIAL VELOCITY
     Coordinates (X,Y,Z):   -2.000000E-02   -1.000000E-04    1.000000E-01
     TEMPORAL STATISTIC: RUNNING AVERAGE
  88 ID: Up10
     QUANTITY: RADIAL VELOCITY
     Coordinates (X,Y,Z):   -1.000000E-02   -1.000000E-04    1.000000E-01
     TEMPORAL STATISTIC: RUNNING AVERAGE
  89 ID: Up10
     QUANTITY: RADIAL VELOCITY
     Coordinates (X,Y,Z):   -1.000000E-04   -1.000000E-04    1.000000E-01
     TEMPORAL STATISTIC: RUNNING AVERAGE
  90 ID: Up10
     QUANTITY: RADIAL VELOCITY
     Coordinates (X,Y,Z):    1.000000E-02   -1.000000E-04    1.000000E-01
     TEMPORAL STATISTIC: RUNNING AVERAGE
  91 ID: Up10
     QUANTITY: RADIAL VELOCITY
     Coordinates (X,Y,Z):    2.000000E-02   -1.000000E-04    1.000000E-01
     TEMPORAL STATISTIC: RUNNING AVERAGE
  92 ID: Up10
     QUANTITY: RADIAL VELOCITY
     Coordinates (X,Y,Z):    3.000000E-02   -1.000000E-04    1.000000E-01
     TEMPORAL STATISTIC: RUNNING AVERAGE
  93 ID: Up10
     QUANTITY: RADIAL VELOCITY
     Coordinates (X,Y,Z):    4.000000E-02   -1.000000E-04    1.000000E-01
     TEMPORAL STATISTIC: RUNNING AVERAGE
  94 ID: Up10
     QUANTITY: RADIAL VELOCITY
     Coordinates (X,Y,Z):    5.000000E-02   -1.000000E-04    1.000000E-01
     TEMPORAL STATISTIC: RUNNING AVERAGE
  95 ID: Up10
     QUANTITY: RADIAL VELOCITY
     Coordinates (X,Y,Z):    6.000000E-02   -1.000000E-04    1.000000E-01
     TEMPORAL STATISTIC: RUNNING AVERAGE
  96 ID: Up10
     QUANTITY: RADIAL VELOCITY
     Coordinates (X,Y,Z):    7.000000E-02   -1.000000E-04    1.000000E-01
     TEMPORAL STATISTIC: RUNNING AVERAGE
  97 ID: Up10
     QUANTITY: RADIAL VELOCITY
     Coordinates (X,Y,Z):    8.000000E-02   -1.000000E-04    1.000000E-01
     TEMPORAL STATISTIC: RUNNING AVERAGE
  98 ID: Up10
     QUANTITY: RADIAL VELOCITY
     Coordinates (X,Y,Z):    9.000000E-02   -1.000000E-04    1.000000E-01
     TEMPORAL STATISTIC: RUNNING AVERAGE
  99 ID: Up10
     QUANTITY: RADIAL VELOCITY
     Coordinates (X,Y,Z):    1.000000E-01   -1.000000E-04    1.000000E-01
     TEMPORAL STATISTIC: RUNNING AVERAGE
 100 ID: Up10
     QUANTITY: RADIAL VELOCITY
     Coordinates (X,Y,Z):    1.100000E-01   -1.000000E-04    1.000000E-01
     TEMPORAL STATISTIC: RUNNING AVERAGE
 101 ID: Up10
     QUANTITY: RADIAL VELOCITY
     Coordinates (X,Y,Z):    1.200000E-01   -1.000000E-04    1.000000E-01
     TEMPORAL STATISTIC: RUNNING AVERAGE
 102 ID: Up10
     QUANTITY: RADIAL VELOCITY
     Coordinates (X,Y,Z):    1.300000E-01   -1.000000E-04    1.000000E-01
     TEMPORAL STATISTIC: RUNNING AVERAGE
 103 ID: Up10
     QUANTITY: RADIAL VELOCITY
     Coordinates (X,Y,Z):    1.400000E-01   -1.000000E-04    1.000000E-01
     TEMPORAL STATISTIC: RUNNING AVERAGE
 104 ID: Up10
     QUANTITY: RADIAL VELOCITY
     Coordinates (X,Y,Z):    1.500000E-01   -1.000000E-04    1.000000E-01
     TEMPORAL STATISTIC: RUNNING AVERAGE
 105 ID: Up10
     QUANTITY: RADIAL VELOCITY
     Coordinates (X,Y,Z):    1.600000E-01   -1.000000E-04    1.000000E-01
     TEMPORAL STATISTIC: RUNNING AVERAGE
 106 ID: Up12
     QUANTITY: RADIAL VELOCITY
     Coordinates (X,Y,Z):   -4.000000E-02   -1.000000E-04    1.200000E-01
     TEMPORAL STATISTIC: RUNNING AVERAGE
 107 ID: Up12
     QUANTITY: RADIAL VELOCITY
     Coordinates (X,Y,Z):   -3.000000E-02   -1.000000E-04    1.200000E-01
     TEMPORAL STATISTIC: RUNNING AVERAGE
 108 ID: Up12
     QUANTITY: RADIAL VELOCITY
     Coordinates (X,Y,Z):   -2.000000E-02   -1.000000E-04    1.200000E-01
     TEMPORAL STATISTIC: RUNNING AVERAGE
 109 ID: Up12
     QUANTITY: RADIAL VELOCITY
     Coordinates (X,Y,Z):   -1.000000E-02   -1.000000E-04    1.200000E-01
     TEMPORAL STATISTIC: RUNNING AVERAGE
 110 ID: Up12
     QUANTITY: RADIAL VELOCITY
     Coordinates (X,Y,Z):   -1.000000E-04   -1.000000E-04    1.200000E-01
     TEMPORAL STATISTIC: RUNNING AVERAGE
 111 ID: Up12
     QUANTITY: RADIAL VELOCITY
     Coordinates (X,Y,Z):    1.000000E-02   -1.000000E-04    1.200000E-01
     TEMPORAL STATISTIC: RUNNING AVERAGE
 112 ID: Up12
     QUANTITY: RADIAL VELOCITY
     Coordinates (X,Y,Z):    2.000000E-02   -1.000000E-04    1.200000E-01
     TEMPORAL STATISTIC: RUNNING AVERAGE
 113 ID: Up12
     QUANTITY: RADIAL VELOCITY
     Coordinates (X,Y,Z):    3.000000E-02   -1.000000E-04    1.200000E-01
     TEMPORAL STATISTIC: RUNNING AVERAGE
 114 ID: Up12
     QUANTITY: RADIAL VELOCITY
     Coordinates (X,Y,Z):    4.000000E-02   -1.000000E-04    1.200000E-01
     TEMPORAL STATISTIC: RUNNING AVERAGE
 115 ID: Up12
     QUANTITY: RADIAL VELOCITY
     Coordinates (X,Y,Z):    5.000000E-02   -1.000000E-04    1.200000E-01
     TEMPORAL STATISTIC: RUNNING AVERAGE
 116 ID: Up12
     QUANTITY: RADIAL VELOCITY
     Coordinates (X,Y,Z):    6.000000E-02   -1.000000E-04    1.200000E-01
     TEMPORAL STATISTIC: RUNNING AVERAGE
 117 ID: Up12
     QUANTITY: RADIAL VELOCITY
     Coordinates (X,Y,Z):    7.000000E-02   -1.000000E-04    1.200000E-01
     TEMPORAL STATISTIC: RUNNING AVERAGE
 118 ID: Up12
     QUANTITY: RADIAL VELOCITY
     Coordinates (X,Y,Z):    8.000000E-02   -1.000000E-04    1.200000E-01
     TEMPORAL STATISTIC: RUNNING AVERAGE
 119 ID: Up12
     QUANTITY: RADIAL VELOCITY
     Coordinates (X,Y,Z):    9.000000E-02   -1.000000E-04    1.200000E-01
     TEMPORAL STATISTIC: RUNNING AVERAGE
 120 ID: Up12
     QUANTITY: RADIAL VELOCITY
     Coordinates (X,Y,Z):    1.000000E-01   -1.000000E-04    1.200000E-01
     TEMPORAL STATISTIC: RUNNING AVERAGE
 121 ID: Up12
     QUANTITY: RADIAL VELOCITY
     Coordinates (X,Y,Z):    1.100000E-01   -1.000000E-04    1.200000E-01
     TEMPORAL STATISTIC: RUNNING AVERAGE
 122 ID: Up12
     QUANTITY: RADIAL VELOCITY
     Coordinates (X,Y,Z):    1.200000E-01   -1.000000E-04    1.200000E-01
     TEMPORAL STATISTIC: RUNNING AVERAGE
 123 ID: Up12
     QUANTITY: RADIAL VELOCITY
     Coordinates (X,Y,Z):    1.300000E-01   -1.000000E-04    1.200000E-01
     TEMPORAL STATISTIC: RUNNING AVERAGE
 124 ID: Up12
     QUANTITY: RADIAL VELOCITY
     Coordinates (X,Y,Z):    1.400000E-01   -1.000000E-04    1.200000E-01
     TEMPORAL STATISTIC: RUNNING AVERAGE
 125 ID: Up12
     QUANTITY: RADIAL VELOCITY
     Coordinates (X,Y,Z):    1.500000E-01   -1.000000E-04    1.200000E-01
     TEMPORAL STATISTIC: RUNNING AVERAGE
 126 ID: Up12
     QUANTITY: RADIAL VELOCITY
     Coordinates (X,Y,Z):    1.600000E-01   -1.000000E-04    1.200000E-01
     TEMPORAL STATISTIC: RUNNING AVERAGE
 127 ID: Up14
     QUANTITY: RADIAL VELOCITY
     Coordinates (X,Y,Z):   -4.000000E-02   -1.000000E-04    1.400000E-01
     TEMPORAL STATISTIC: RUNNING AVERAGE
 128 ID: Up14
     QUANTITY: RADIAL VELOCITY
     Coordinates (X,Y,Z):   -3.000000E-02   -1.000000E-04    1.400000E-01
     TEMPORAL STATISTIC: RUNNING AVERAGE
 129 ID: Up14
     QUANTITY: RADIAL VELOCITY
     Coordinates (X,Y,Z):   -2.000000E-02   -1.000000E-04    1.400000E-01
     TEMPORAL STATISTIC: RUNNING AVERAGE
 130 ID: Up14
     QUANTITY: RADIAL VELOCITY
     Coordinates (X,Y,Z):   -1.000000E-02   -1.000000E-04    1.400000E-01
     TEMPORAL STATISTIC: RUNNING AVERAGE
 131 ID: Up14
     QUANTITY: RADIAL VELOCITY
     Coordinates (X,Y,Z):   -1.000000E-04   -1.000000E-04    1.400000E-01
     TEMPORAL STATISTIC: RUNNING AVERAGE
 132 ID: Up14
     QUANTITY: RADIAL VELOCITY
     Coordinates (X,Y,Z):    1.000000E-02   -1.000000E-04    1.400000E-01
     TEMPORAL STATISTIC: RUNNING AVERAGE
 133 ID: Up14
     QUANTITY: RADIAL VELOCITY
     Coordinates (X,Y,Z):    2.000000E-02   -1.000000E-04    1.400000E-01
     TEMPORAL STATISTIC: RUNNING AVERAGE
 134 ID: Up14
     QUANTITY: RADIAL VELOCITY
     Coordinates (X,Y,Z):    3.000000E-02   -1.000000E-04    1.400000E-01
     TEMPORAL STATISTIC: RUNNING AVERAGE
 135 ID: Up14
     QUANTITY: RADIAL VELOCITY
     Coordinates (X,Y,Z):    4.000000E-02   -1.000000E-04    1.400000E-01
     TEMPORAL STATISTIC: RUNNING AVERAGE
 136 ID: Up14
     QUANTITY: RADIAL VELOCITY
     Coordinates (X,Y,Z):    5.000000E-02   -1.000000E-04    1.400000E-01
     TEMPORAL STATISTIC: RUNNING AVERAGE
 137 ID: Up14
     QUANTITY: RADIAL VELOCITY
     Coordinates (X,Y,Z):    6.000000E-02   -1.000000E-04    1.400000E-01
     TEMPORAL STATISTIC: RUNNING AVERAGE
 138 ID: Up14
     QUANTITY: RADIAL VELOCITY
     Coordinates (X,Y,Z):    7.000000E-02   -1.000000E-04    1.400000E-01
     TEMPORAL STATISTIC: RUNNING AVERAGE
 139 ID: Up14
     QUANTITY: RADIAL VELOCITY
     Coordinates (X,Y,Z):    8.000000E-02   -1.000000E-04    1.400000E-01
     TEMPORAL STATISTIC: RUNNING AVERAGE
 140 ID: Up14
     QUANTITY: RADIAL VELOCITY
     Coordinates (X,Y,Z):    9.000000E-02   -1.000000E-04    1.400000E-01
     TEMPORAL STATISTIC: RUNNING AVERAGE
 141 ID: Up14
     QUANTITY: RADIAL VELOCITY
     Coordinates (X,Y,Z):    1.000000E-01   -1.000000E-04    1.400000E-01
     TEMPORAL STATISTIC: RUNNING AVERAGE
 142 ID: Up14
     QUANTITY: RADIAL VELOCITY
     Coordinates (X,Y,Z):    1.100000E-01   -1.000000E-04    1.400000E-01
     TEMPORAL STATISTIC: RUNNING AVERAGE
 143 ID: Up14
     QUANTITY: RADIAL VELOCITY
     Coordinates (X,Y,Z):    1.200000E-01   -1.000000E-04    1.400000E-01
     TEMPORAL STATISTIC: RUNNING AVERAGE
 144 ID: Up14
     QUANTITY: RADIAL VELOCITY
     Coordinates (X,Y,Z):    1.300000E-01   -1.000000E-04    1.400000E-01
     TEMPORAL STATISTIC: RUNNING AVERAGE
 145 ID: Up14
     QUANTITY: RADIAL VELOCITY
     Coordinates (X,Y,Z):    1.400000E-01   -1.000000E-04    1.400000E-01
     TEMPORAL STATISTIC: RUNNING AVERAGE
 146 ID: Up14
     QUANTITY: RADIAL VELOCITY
     Coordinates (X,Y,Z):    1.500000E-01   -1.000000E-04    1.400000E-01
     TEMPORAL STATISTIC: RUNNING AVERAGE
 147 ID: Up14
     QUANTITY: RADIAL VELOCITY
     Coordinates (X,Y,Z):    1.600000E-01   -1.000000E-04    1.400000E-01
     TEMPORAL STATISTIC: RUNNING AVERAGE
 148 ID: Up16
     QUANTITY: RADIAL VELOCITY
     Coordinates (X,Y,Z):   -4.000000E-02   -1.000000E-04    1.600000E-01
     TEMPORAL STATISTIC: RUNNING AVERAGE
 149 ID: Up16
     QUANTITY: RADIAL VELOCITY
     Coordinates (X,Y,Z):   -3.000000E-02   -1.000000E-04    1.600000E-01
     TEMPORAL STATISTIC: RUNNING AVERAGE
 150 ID: Up16
     QUANTITY: RADIAL VELOCITY
     Coordinates (X,Y,Z):   -2.000000E-02   -1.000000E-04    1.600000E-01
     TEMPORAL STATISTIC: RUNNING AVERAGE
 151 ID: Up16
     QUANTITY: RADIAL VELOCITY
     Coordinates (X,Y,Z):   -1.000000E-02   -1.000000E-04    1.600000E-01
     TEMPORAL STATISTIC: RUNNING AVERAGE
 152 ID: Up16
     QUANTITY: RADIAL VELOCITY
     Coordinates (X,Y,Z):   -1.000000E-04   -1.000000E-04    1.600000E-01
     TEMPORAL STATISTIC: RUNNING AVERAGE
 153 ID: Up16
     QUANTITY: RADIAL VELOCITY
     Coordinates (X,Y,Z):    1.000000E-02   -1.000000E-04    1.600000E-01
     TEMPORAL STATISTIC: RUNNING AVERAGE
 154 ID: Up16
     QUANTITY: RADIAL VELOCITY
     Coordinates (X,Y,Z):    2.000000E-02   -1.000000E-04    1.600000E-01
     TEMPORAL STATISTIC: RUNNING AVERAGE
 155 ID: Up16
     QUANTITY: RADIAL VELOCITY
     Coordinates (X,Y,Z):    3.000000E-02   -1.000000E-04    1.600000E-01
     TEMPORAL STATISTIC: RUNNING AVERAGE
 156 ID: Up16
     QUANTITY: RADIAL VELOCITY
     Coordinates (X,Y,Z):    4.000000E-02   -1.000000E-04    1.600000E-01
     TEMPORAL STATISTIC: RUNNING AVERAGE
 157 ID: Up16
     QUANTITY: RADIAL VELOCITY
     Coordinates (X,Y,Z):    5.000000E-02   -1.000000E-04    1.600000E-01
     TEMPORAL STATISTIC: RUNNING AVERAGE
 158 ID: Up16
     QUANTITY: RADIAL VELOCITY
     Coordinates (X,Y,Z):    6.000000E-02   -1.000000E-04    1.600000E-01
     TEMPORAL STATISTIC: RUNNING AVERAGE
 159 ID: Up16
     QUANTITY: RADIAL VELOCITY
     Coordinates (X,Y,Z):    7.000000E-02   -1.000000E-04    1.600000E-01
     TEMPORAL STATISTIC: RUNNING AVERAGE
 160 ID: Up16
     QUANTITY: RADIAL VELOCITY
     Coordinates (X,Y,Z):    8.000000E-02   -1.000000E-04    1.600000E-01
     TEMPORAL STATISTIC: RUNNING AVERAGE
 161 ID: Up16
     QUANTITY: RADIAL VELOCITY
     Coordinates (X,Y,Z):    9.000000E-02   -1.000000E-04    1.600000E-01
     TEMPORAL STATISTIC: RUNNING AVERAGE
 162 ID: Up16
     QUANTITY: RADIAL VELOCITY
     Coordinates (X,Y,Z):    1.000000E-01   -1.000000E-04    1.600000E-01
     TEMPORAL STATISTIC: RUNNING AVERAGE
 163 ID: Up16
     QUANTITY: RADIAL VELOCITY
     Coordinates (X,Y,Z):    1.100000E-01   -1.000000E-04    1.600000E-01
     TEMPORAL STATISTIC: RUNNING AVERAGE
 164 ID: Up16
     QUANTITY: RADIAL VELOCITY
     Coordinates (X,Y,Z):    1.200000E-01   -1.000000E-04    1.600000E-01
     TEMPORAL STATISTIC: RUNNING AVERAGE
 165 ID: Up16
     QUANTITY: RADIAL VELOCITY
     Coordinates (X,Y,Z):    1.300000E-01   -1.000000E-04    1.600000E-01
     TEMPORAL STATISTIC: RUNNING AVERAGE
 166 ID: Up16
     QUANTITY: RADIAL VELOCITY
     Coordinates (X,Y,Z):    1.400000E-01   -1.000000E-04    1.600000E-01
     TEMPORAL STATISTIC: RUNNING AVERAGE
 167 ID: Up16
     QUANTITY: RADIAL VELOCITY
     Coordinates (X,Y,Z):    1.500000E-01   -1.000000E-04    1.600000E-01
     TEMPORAL STATISTIC: RUNNING AVERAGE
 168 ID: Up16
     QUANTITY: RADIAL VELOCITY
     Coordinates (X,Y,Z):    1.600000E-01   -1.000000E-04    1.600000E-01
     TEMPORAL STATISTIC: RUNNING AVERAGE
 169 ID: Up18
     QUANTITY: RADIAL VELOCITY
     Coordinates (X,Y,Z):   -4.000000E-02   -1.000000E-04    1.800000E-01
     TEMPORAL STATISTIC: RUNNING AVERAGE
 170 ID: Up18
     QUANTITY: RADIAL VELOCITY
     Coordinates (X,Y,Z):   -3.000000E-02   -1.000000E-04    1.800000E-01
     TEMPORAL STATISTIC: RUNNING AVERAGE
 171 ID: Up18
     QUANTITY: RADIAL VELOCITY
     Coordinates (X,Y,Z):   -2.000000E-02   -1.000000E-04    1.800000E-01
     TEMPORAL STATISTIC: RUNNING AVERAGE
 172 ID: Up18
     QUANTITY: RADIAL VELOCITY
     Coordinates (X,Y,Z):   -1.000000E-02   -1.000000E-04    1.800000E-01
     TEMPORAL STATISTIC: RUNNING AVERAGE
 173 ID: Up18
     QUANTITY: RADIAL VELOCITY
     Coordinates (X,Y,Z):   -1.000000E-04   -1.000000E-04    1.800000E-01
     TEMPORAL STATISTIC: RUNNING AVERAGE
 174 ID: Up18
     QUANTITY: RADIAL VELOCITY
     Coordinates (X,Y,Z):    1.000000E-02   -1.000000E-04    1.800000E-01
     TEMPORAL STATISTIC: RUNNING AVERAGE
 175 ID: Up18
     QUANTITY: RADIAL VELOCITY
     Coordinates (X,Y,Z):    2.000000E-02   -1.000000E-04    1.800000E-01
     TEMPORAL STATISTIC: RUNNING AVERAGE
 176 ID: Up18
     QUANTITY: RADIAL VELOCITY
     Coordinates (X,Y,Z):    3.000000E-02   -1.000000E-04    1.800000E-01
     TEMPORAL STATISTIC: RUNNING AVERAGE
 177 ID: Up18
     QUANTITY: RADIAL VELOCITY
     Coordinates (X,Y,Z):    4.000000E-02   -1.000000E-04    1.800000E-01
     TEMPORAL STATISTIC: RUNNING AVERAGE
 178 ID: Up18
     QUANTITY: RADIAL VELOCITY
     Coordinates (X,Y,Z):    5.000000E-02   -1.000000E-04    1.800000E-01
     TEMPORAL STATISTIC: RUNNING AVERAGE
 179 ID: Up18
     QUANTITY: RADIAL VELOCITY
     Coordinates (X,Y,Z):    6.000000E-02   -1.000000E-04    1.800000E-01
     TEMPORAL STATISTIC: RUNNING AVERAGE
 180 ID: Up18
     QUANTITY: RADIAL VELOCITY
     Coordinates (X,Y,Z):    7.000000E-02   -1.000000E-04    1.800000E-01
     TEMPORAL STATISTIC: RUNNING AVERAGE
 181 ID: Up18
     QUANTITY: RADIAL VELOCITY
     Coordinates (X,Y,Z):    8.000000E-02   -1.000000E-04    1.800000E-01
     TEMPORAL STATISTIC: RUNNING AVERAGE
 182 ID: Up18
     QUANTITY: RADIAL VELOCITY
     Coordinates (X,Y,Z):    9.000000E-02   -1.000000E-04    1.800000E-01
     TEMPORAL STATISTIC: RUNNING AVERAGE
 183 ID: Up18
     QUANTITY: RADIAL VELOCITY
     Coordinates (X,Y,Z):    1.000000E-01   -1.000000E-04    1.800000E-01
     TEMPORAL STATISTIC: RUNNING AVERAGE
 184 ID: Up18
     QUANTITY: RADIAL VELOCITY
     Coordinates (X,Y,Z):    1.100000E-01   -1.000000E-04    1.800000E-01
     TEMPORAL STATISTIC: RUNNING AVERAGE
 185 ID: Up18
     QUANTITY: RADIAL VELOCITY
     Coordinates (X,Y,Z):    1.200000E-01   -1.000000E-04    1.800000E-01
     TEMPORAL STATISTIC: RUNNING AVERAGE
 186 ID: Up18
     QUANTITY: RADIAL VELOCITY
     Coordinates (X,Y,Z):    1.300000E-01   -1.000000E-04    1.800000E-01
     TEMPORAL STATISTIC: RUNNING AVERAGE
 187 ID: Up18
     QUANTITY: RADIAL VELOCITY
     Coordinates (X,Y,Z):    1.400000E-01   -1.000000E-04    1.800000E-01
     TEMPORAL STATISTIC: RUNNING AVERAGE
 188 ID: Up18
     QUANTITY: RADIAL VELOCITY
     Coordinates (X,Y,Z):    1.500000E-01   -1.000000E-04    1.800000E-01
     TEMPORAL STATISTIC: RUNNING AVERAGE
 189 ID: Up18
     QUANTITY: RADIAL VELOCITY
     Coordinates (X,Y,Z):    1.600000E-01   -1.000000E-04    1.800000E-01
     TEMPORAL STATISTIC: RUNNING AVERAGE
 190 ID: Up20
     QUANTITY: RADIAL VELOCITY
     Coordinates (X,Y,Z):   -4.000000E-02   -1.000000E-04    2.000000E-01
     TEMPORAL STATISTIC: RUNNING AVERAGE
 191 ID: Up20
     QUANTITY: RADIAL VELOCITY
     Coordinates (X,Y,Z):   -3.000000E-02   -1.000000E-04    2.000000E-01
     TEMPORAL STATISTIC: RUNNING AVERAGE
 192 ID: Up20
     QUANTITY: RADIAL VELOCITY
     Coordinates (X,Y,Z):   -2.000000E-02   -1.000000E-04    2.000000E-01
     TEMPORAL STATISTIC: RUNNING AVERAGE
 193 ID: Up20
     QUANTITY: RADIAL VELOCITY
     Coordinates (X,Y,Z):   -1.000000E-02   -1.000000E-04    2.000000E-01
     TEMPORAL STATISTIC: RUNNING AVERAGE
 194 ID: Up20
     QUANTITY: RADIAL VELOCITY
     Coordinates (X,Y,Z):   -1.000000E-04   -1.000000E-04    2.000000E-01
     TEMPORAL STATISTIC: RUNNING AVERAGE
 195 ID: Up20
     QUANTITY: RADIAL VELOCITY
     Coordinates (X,Y,Z):    1.000000E-02   -1.000000E-04    2.000000E-01
     TEMPORAL STATISTIC: RUNNING AVERAGE
 196 ID: Up20
     QUANTITY: RADIAL VELOCITY
     Coordinates (X,Y,Z):    2.000000E-02   -1.000000E-04    2.000000E-01
     TEMPORAL STATISTIC: RUNNING AVERAGE
 197 ID: Up20
     QUANTITY: RADIAL VELOCITY
     Coordinates (X,Y,Z):    3.000000E-02   -1.000000E-04    2.000000E-01
     TEMPORAL STATISTIC: RUNNING AVERAGE
 198 ID: Up20
     QUANTITY: RADIAL VELOCITY
     Coordinates (X,Y,Z):    4.000000E-02   -1.000000E-04    2.000000E-01
     TEMPORAL STATISTIC: RUNNING AVERAGE
 199 ID: Up20
     QUANTITY: RADIAL VELOCITY
     Coordinates (X,Y,Z):    5.000000E-02   -1.000000E-04    2.000000E-01
     TEMPORAL STATISTIC: RUNNING AVERAGE
 200 ID: Up20
     QUANTITY: RADIAL VELOCITY
     Coordinates (X,Y,Z):    6.000000E-02   -1.000000E-04    2.000000E-01
     TEMPORAL STATISTIC: RUNNING AVERAGE
 201 ID: Up20
     QUANTITY: RADIAL VELOCITY
     Coordinates (X,Y,Z):    7.000000E-02   -1.000000E-04    2.000000E-01
     TEMPORAL STATISTIC: RUNNING AVERAGE
 202 ID: Up20
     QUANTITY: RADIAL VELOCITY
     Coordinates (X,Y,Z):    8.000000E-02   -1.000000E-04    2.000000E-01
     TEMPORAL STATISTIC: RUNNING AVERAGE
 203 ID: Up20
     QUANTITY: RADIAL VELOCITY
     Coordinates (X,Y,Z):    9.000000E-02   -1.000000E-04    2.000000E-01
     TEMPORAL STATISTIC: RUNNING AVERAGE
 204 ID: Up20
     QUANTITY: RADIAL VELOCITY
     Coordinates (X,Y,Z):    1.000000E-01   -1.000000E-04    2.000000E-01
     TEMPORAL STATISTIC: RUNNING AVERAGE
 205 ID: Up20
     QUANTITY: RADIAL VELOCITY
     Coordinates (X,Y,Z):    1.100000E-01   -1.000000E-04    2.000000E-01
     TEMPORAL STATISTIC: RUNNING AVERAGE
 206 ID: Up20
     QUANTITY: RADIAL VELOCITY
     Coordinates (X,Y,Z):    1.200000E-01   -1.000000E-04    2.000000E-01
     TEMPORAL STATISTIC: RUNNING AVERAGE
 207 ID: Up20
     QUANTITY: RADIAL VELOCITY
     Coordinates (X,Y,Z):    1.300000E-01   -1.000000E-04    2.000000E-01
     TEMPORAL STATISTIC: RUNNING AVERAGE
 208 ID: Up20
     QUANTITY: RADIAL VELOCITY
     Coordinates (X,Y,Z):    1.400000E-01   -1.000000E-04    2.000000E-01
     TEMPORAL STATISTIC: RUNNING AVERAGE
 209 ID: Up20
     QUANTITY: RADIAL VELOCITY
     Coordinates (X,Y,Z):    1.500000E-01   -1.000000E-04    2.000000E-01
     TEMPORAL STATISTIC: RUNNING AVERAGE
 210 ID: Up20
     QUANTITY: RADIAL VELOCITY
     Coordinates (X,Y,Z):    1.600000E-01   -1.000000E-04    2.000000E-01
     TEMPORAL STATISTIC: RUNNING AVERAGE
 211 ID: Up30
     QUANTITY: RADIAL VELOCITY
     Coordinates (X,Y,Z):   -4.000000E-02   -1.000000E-04    3.000000E-01
     TEMPORAL STATISTIC: RUNNING AVERAGE
 212 ID: Up30
     QUANTITY: RADIAL VELOCITY
     Coordinates (X,Y,Z):   -3.000000E-02   -1.000000E-04    3.000000E-01
     TEMPORAL STATISTIC: RUNNING AVERAGE
 213 ID: Up30
     QUANTITY: RADIAL VELOCITY
     Coordinates (X,Y,Z):   -2.000000E-02   -1.000000E-04    3.000000E-01
     TEMPORAL STATISTIC: RUNNING AVERAGE
 214 ID: Up30
     QUANTITY: RADIAL VELOCITY
     Coordinates (X,Y,Z):   -1.000000E-02   -1.000000E-04    3.000000E-01
     TEMPORAL STATISTIC: RUNNING AVERAGE
 215 ID: Up30
     QUANTITY: RADIAL VELOCITY
     Coordinates (X,Y,Z):   -1.000000E-04   -1.000000E-04    3.000000E-01
     TEMPORAL STATISTIC: RUNNING AVERAGE
 216 ID: Up30
     QUANTITY: RADIAL VELOCITY
     Coordinates (X,Y,Z):    1.000000E-02   -1.000000E-04    3.000000E-01
     TEMPORAL STATISTIC: RUNNING AVERAGE
 217 ID: Up30
     QUANTITY: RADIAL VELOCITY
     Coordinates (X,Y,Z):    2.000000E-02   -1.000000E-04    3.000000E-01
     TEMPORAL STATISTIC: RUNNING AVERAGE
 218 ID: Up30
     QUANTITY: RADIAL VELOCITY
     Coordinates (X,Y,Z):    3.000000E-02   -1.000000E-04    3.000000E-01
     TEMPORAL STATISTIC: RUNNING AVERAGE
 219 ID: Up30
     QUANTITY: RADIAL VELOCITY
     Coordinates (X,Y,Z):    4.000000E-02   -1.000000E-04    3.000000E-01
     TEMPORAL STATISTIC: RUNNING AVERAGE
 220 ID: Up30
     QUANTITY: RADIAL VELOCITY
     Coordinates (X,Y,Z):    5.000000E-02   -1.000000E-04    3.000000E-01
     TEMPORAL STATISTIC: RUNNING AVERAGE
 221 ID: Up30
     QUANTITY: RADIAL VELOCITY
     Coordinates (X,Y,Z):    6.000000E-02   -1.000000E-04    3.000000E-01
     TEMPORAL STATISTIC: RUNNING AVERAGE
 222 ID: Up30
     QUANTITY: RADIAL VELOCITY
     Coordinates (X,Y,Z):    7.000000E-02   -1.000000E-04    3.000000E-01
     TEMPORAL STATISTIC: RUNNING AVERAGE
 223 ID: Up30
     QUANTITY: RADIAL VELOCITY
     Coordinates (X,Y,Z):    8.000000E-02   -1.000000E-04    3.000000E-01
     TEMPORAL STATISTIC: RUNNING AVERAGE
 224 ID: Up30
     QUANTITY: RADIAL VELOCITY
     Coordinates (X,Y,Z):    9.000000E-02   -1.000000E-04    3.000000E-01
     TEMPORAL STATISTIC: RUNNING AVERAGE
 225 ID: Up30
     QUANTITY: RADIAL VELOCITY
     Coordinates (X,Y,Z):    1.000000E-01   -1.000000E-04    3.000000E-01
     TEMPORAL STATISTIC: RUNNING AVERAGE
 226 ID: Up30
     QUANTITY: RADIAL VELOCITY
     Coordinates (X,Y,Z):    1.100000E-01   -1.000000E-04    3.000000E-01
     TEMPORAL STATISTIC: RUNNING AVERAGE
 227 ID: Up30
     QUANTITY: RADIAL VELOCITY
     Coordinates (X,Y,Z):    1.200000E-01   -1.000000E-04    3.000000E-01
     TEMPORAL STATISTIC: RUNNING AVERAGE
 228 ID: Up30
     QUANTITY: RADIAL VELOCITY
     Coordinates (X,Y,Z):    1.300000E-01   -1.000000E-04    3.000000E-01
     TEMPORAL STATISTIC: RUNNING AVERAGE
 229 ID: Up30
     QUANTITY: RADIAL VELOCITY
     Coordinates (X,Y,Z):    1.400000E-01   -1.000000E-04    3.000000E-01
     TEMPORAL STATISTIC: RUNNING AVERAGE
 230 ID: Up30
     QUANTITY: RADIAL VELOCITY
     Coordinates (X,Y,Z):    1.500000E-01   -1.000000E-04    3.000000E-01
     TEMPORAL STATISTIC: RUNNING AVERAGE
 231 ID: Up30
     QUANTITY: RADIAL VELOCITY
     Coordinates (X,Y,Z):    1.600000E-01   -1.000000E-04    3.000000E-01
     TEMPORAL STATISTIC: RUNNING AVERAGE
 232 ID: Up60
     QUANTITY: RADIAL VELOCITY
     Coordinates (X,Y,Z):   -4.000000E-02   -1.000000E-04    6.000000E-01
     TEMPORAL STATISTIC: RUNNING AVERAGE
 233 ID: Up60
     QUANTITY: RADIAL VELOCITY
     Coordinates (X,Y,Z):   -3.000000E-02   -1.000000E-04    6.000000E-01
     TEMPORAL STATISTIC: RUNNING AVERAGE
 234 ID: Up60
     QUANTITY: RADIAL VELOCITY
     Coordinates (X,Y,Z):   -2.000000E-02   -1.000000E-04    6.000000E-01
     TEMPORAL STATISTIC: RUNNING AVERAGE
 235 ID: Up60
     QUANTITY: RADIAL VELOCITY
     Coordinates (X,Y,Z):   -1.000000E-02   -1.000000E-04    6.000000E-01
     TEMPORAL STATISTIC: RUNNING AVERAGE
 236 ID: Up60
     QUANTITY: RADIAL VELOCITY
     Coordinates (X,Y,Z):   -1.000000E-04   -1.000000E-04    6.000000E-01
     TEMPORAL STATISTIC: RUNNING AVERAGE
 237 ID: Up60
     QUANTITY: RADIAL VELOCITY
     Coordinates (X,Y,Z):    1.000000E-02   -1.000000E-04    6.000000E-01
     TEMPORAL STATISTIC: RUNNING AVERAGE
 238 ID: Up60
     QUANTITY: RADIAL VELOCITY
     Coordinates (X,Y,Z):    2.000000E-02   -1.000000E-04    6.000000E-01
     TEMPORAL STATISTIC: RUNNING AVERAGE
 239 ID: Up60
     QUANTITY: RADIAL VELOCITY
     Coordinates (X,Y,Z):    3.000000E-02   -1.000000E-04    6.000000E-01
     TEMPORAL STATISTIC: RUNNING AVERAGE
 240 ID: Up60
     QUANTITY: RADIAL VELOCITY
     Coordinates (X,Y,Z):    4.000000E-02   -1.000000E-04    6.000000E-01
     TEMPORAL STATISTIC: RUNNING AVERAGE
 241 ID: Up60
     QUANTITY: RADIAL VELOCITY
     Coordinates (X,Y,Z):    5.000000E-02   -1.000000E-04    6.000000E-01
     TEMPORAL STATISTIC: RUNNING AVERAGE
 242 ID: Up60
     QUANTITY: RADIAL VELOCITY
     Coordinates (X,Y,Z):    6.000000E-02   -1.000000E-04    6.000000E-01
     TEMPORAL STATISTIC: RUNNING AVERAGE
 243 ID: Up60
     QUANTITY: RADIAL VELOCITY
     Coordinates (X,Y,Z):    7.000000E-02   -1.000000E-04    6.000000E-01
     TEMPORAL STATISTIC: RUNNING AVERAGE
 244 ID: Up60
     QUANTITY: RADIAL VELOCITY
     Coordinates (X,Y,Z):    8.000000E-02   -1.000000E-04    6.000000E-01
     TEMPORAL STATISTIC: RUNNING AVERAGE
 245 ID: Up60
     QUANTITY: RADIAL VELOCITY
     Coordinates (X,Y,Z):    9.000000E-02   -1.000000E-04    6.000000E-01
     TEMPORAL STATISTIC: RUNNING AVERAGE
 246 ID: Up60
     QUANTITY: RADIAL VELOCITY
     Coordinates (X,Y,Z):    1.000000E-01   -1.000000E-04    6.000000E-01
     TEMPORAL STATISTIC: RUNNING AVERAGE
 247 ID: Up60
     QUANTITY: RADIAL VELOCITY
     Coordinates (X,Y,Z):    1.100000E-01   -1.000000E-04    6.000000E-01
     TEMPORAL STATISTIC: RUNNING AVERAGE
 248 ID: Up60
     QUANTITY: RADIAL VELOCITY
     Coordinates (X,Y,Z):    1.200000E-01   -1.000000E-04    6.000000E-01
     TEMPORAL STATISTIC: RUNNING AVERAGE
 249 ID: Up60
     QUANTITY: RADIAL VELOCITY
     Coordinates (X,Y,Z):    1.300000E-01   -1.000000E-04    6.000000E-01
     TEMPORAL STATISTIC: RUNNING AVERAGE
 250 ID: Up60
     QUANTITY: RADIAL VELOCITY
     Coordinates (X,Y,Z):    1.400000E-01   -1.000000E-04    6.000000E-01
     TEMPORAL STATISTIC: RUNNING AVERAGE
 251 ID: Up60
     QUANTITY: RADIAL VELOCITY
     Coordinates (X,Y,Z):    1.500000E-01   -1.000000E-04    6.000000E-01
     TEMPORAL STATISTIC: RUNNING AVERAGE
 252 ID: Up60
     QUANTITY: RADIAL VELOCITY
     Coordinates (X,Y,Z):    1.600000E-01   -1.000000E-04    6.000000E-01
     TEMPORAL STATISTIC: RUNNING AVERAGE
 253 ID: Wp2
     QUANTITY: W-VELOCITY
     Coordinates (X,Y,Z):   -4.000000E-02   -1.000000E-04    2.000000E-02
     TEMPORAL STATISTIC: RUNNING AVERAGE
 254 ID: Wp2
     QUANTITY: W-VELOCITY
     Coordinates (X,Y,Z):   -3.000000E-02   -1.000000E-04    2.000000E-02
     TEMPORAL STATISTIC: RUNNING AVERAGE
 255 ID: Wp2
     QUANTITY: W-VELOCITY
     Coordinates (X,Y,Z):   -2.000000E-02   -1.000000E-04    2.000000E-02
     TEMPORAL STATISTIC: RUNNING AVERAGE
 256 ID: Wp2
     QUANTITY: W-VELOCITY
     Coordinates (X,Y,Z):   -1.000000E-02   -1.000000E-04    2.000000E-02
     TEMPORAL STATISTIC: RUNNING AVERAGE
 257 ID: Wp2
     QUANTITY: W-VELOCITY
     Coordinates (X,Y,Z):   -1.000000E-04   -1.000000E-04    2.000000E-02
     TEMPORAL STATISTIC: RUNNING AVERAGE
 258 ID: Wp2
     QUANTITY: W-VELOCITY
     Coordinates (X,Y,Z):    1.000000E-02   -1.000000E-04    2.000000E-02
     TEMPORAL STATISTIC: RUNNING AVERAGE
 259 ID: Wp2
     QUANTITY: W-VELOCITY
     Coordinates (X,Y,Z):    2.000000E-02   -1.000000E-04    2.000000E-02
     TEMPORAL STATISTIC: RUNNING AVERAGE
 260 ID: Wp2
     QUANTITY: W-VELOCITY
     Coordinates (X,Y,Z):    3.000000E-02   -1.000000E-04    2.000000E-02
     TEMPORAL STATISTIC: RUNNING AVERAGE
 261 ID: Wp2
     QUANTITY: W-VELOCITY
     Coordinates (X,Y,Z):    4.000000E-02   -1.000000E-04    2.000000E-02
     TEMPORAL STATISTIC: RUNNING AVERAGE
 262 ID: Wp2
     QUANTITY: W-VELOCITY
     Coordinates (X,Y,Z):    5.000000E-02   -1.000000E-04    2.000000E-02
     TEMPORAL STATISTIC: RUNNING AVERAGE
 263 ID: Wp2
     QUANTITY: W-VELOCITY
     Coordinates (X,Y,Z):    6.000000E-02   -1.000000E-04    2.000000E-02
     TEMPORAL STATISTIC: RUNNING AVERAGE
 264 ID: Wp2
     QUANTITY: W-VELOCITY
     Coordinates (X,Y,Z):    7.000000E-02   -1.000000E-04    2.000000E-02
     TEMPORAL STATISTIC: RUNNING AVERAGE
 265 ID: Wp2
     QUANTITY: W-VELOCITY
     Coordinates (X,Y,Z):    8.000000E-02   -1.000000E-04    2.000000E-02
     TEMPORAL STATISTIC: RUNNING AVERAGE
 266 ID: Wp2
     QUANTITY: W-VELOCITY
     Coordinates (X,Y,Z):    9.000000E-02   -1.000000E-04    2.000000E-02
     TEMPORAL STATISTIC: RUNNING AVERAGE
 267 ID: Wp2
     QUANTITY: W-VELOCITY
     Coordinates (X,Y,Z):    1.000000E-01   -1.000000E-04    2.000000E-02
     TEMPORAL STATISTIC: RUNNING AVERAGE
 268 ID: Wp2
     QUANTITY: W-VELOCITY
     Coordinates (X,Y,Z):    1.100000E-01   -1.000000E-04    2.000000E-02
     TEMPORAL STATISTIC: RUNNING AVERAGE
 269 ID: Wp2
     QUANTITY: W-VELOCITY
     Coordinates (X,Y,Z):    1.200000E-01   -1.000000E-04    2.000000E-02
     TEMPORAL STATISTIC: RUNNING AVERAGE
 270 ID: Wp2
     QUANTITY: W-VELOCITY
     Coordinates (X,Y,Z):    1.300000E-01   -1.000000E-04    2.000000E-02
     TEMPORAL STATISTIC: RUNNING AVERAGE
 271 ID: Wp2
     QUANTITY: W-VELOCITY
     Coordinates (X,Y,Z):    1.400000E-01   -1.000000E-04    2.000000E-02
     TEMPORAL STATISTIC: RUNNING AVERAGE
 272 ID: Wp2
     QUANTITY: W-VELOCITY
     Coordinates (X,Y,Z):    1.500000E-01   -1.000000E-04    2.000000E-02
     TEMPORAL STATISTIC: RUNNING AVERAGE
 273 ID: Wp2
     QUANTITY: W-VELOCITY
     Coordinates (X,Y,Z):    1.600000E-01   -1.000000E-04    2.000000E-02
     TEMPORAL STATISTIC: RUNNING AVERAGE
 274 ID: Wp4
     QUANTITY: W-VELOCITY
     Coordinates (X,Y,Z):   -4.000000E-02   -1.000000E-04    4.000000E-02
     TEMPORAL STATISTIC: RUNNING AVERAGE
 275 ID: Wp4
     QUANTITY: W-VELOCITY
     Coordinates (X,Y,Z):   -3.000000E-02   -1.000000E-04    4.000000E-02
     TEMPORAL STATISTIC: RUNNING AVERAGE
 276 ID: Wp4
     QUANTITY: W-VELOCITY
     Coordinates (X,Y,Z):   -2.000000E-02   -1.000000E-04    4.000000E-02
     TEMPORAL STATISTIC: RUNNING AVERAGE
 277 ID: Wp4
     QUANTITY: W-VELOCITY
     Coordinates (X,Y,Z):   -1.000000E-02   -1.000000E-04    4.000000E-02
     TEMPORAL STATISTIC: RUNNING AVERAGE
 278 ID: Wp4
     QUANTITY: W-VELOCITY
     Coordinates (X,Y,Z):   -1.000000E-04   -1.000000E-04    4.000000E-02
     TEMPORAL STATISTIC: RUNNING AVERAGE
 279 ID: Wp4
     QUANTITY: W-VELOCITY
     Coordinates (X,Y,Z):    1.000000E-02   -1.000000E-04    4.000000E-02
     TEMPORAL STATISTIC: RUNNING AVERAGE
 280 ID: Wp4
     QUANTITY: W-VELOCITY
     Coordinates (X,Y,Z):    2.000000E-02   -1.000000E-04    4.000000E-02
     TEMPORAL STATISTIC: RUNNING AVERAGE
 281 ID: Wp4
     QUANTITY: W-VELOCITY
     Coordinates (X,Y,Z):    3.000000E-02   -1.000000E-04    4.000000E-02
     TEMPORAL STATISTIC: RUNNING AVERAGE
 282 ID: Wp4
     QUANTITY: W-VELOCITY
     Coordinates (X,Y,Z):    4.000000E-02   -1.000000E-04    4.000000E-02
     TEMPORAL STATISTIC: RUNNING AVERAGE
 283 ID: Wp4
     QUANTITY: W-VELOCITY
     Coordinates (X,Y,Z):    5.000000E-02   -1.000000E-04    4.000000E-02
     TEMPORAL STATISTIC: RUNNING AVERAGE
 284 ID: Wp4
     QUANTITY: W-VELOCITY
     Coordinates (X,Y,Z):    6.000000E-02   -1.000000E-04    4.000000E-02
     TEMPORAL STATISTIC: RUNNING AVERAGE
 285 ID: Wp4
     QUANTITY: W-VELOCITY
     Coordinates (X,Y,Z):    7.000000E-02   -1.000000E-04    4.000000E-02
     TEMPORAL STATISTIC: RUNNING AVERAGE
 286 ID: Wp4
     QUANTITY: W-VELOCITY
     Coordinates (X,Y,Z):    8.000000E-02   -1.000000E-04    4.000000E-02
     TEMPORAL STATISTIC: RUNNING AVERAGE
 287 ID: Wp4
     QUANTITY: W-VELOCITY
     Coordinates (X,Y,Z):    9.000000E-02   -1.000000E-04    4.000000E-02
     TEMPORAL STATISTIC: RUNNING AVERAGE
 288 ID: Wp4
     QUANTITY: W-VELOCITY
     Coordinates (X,Y,Z):    1.000000E-01   -1.000000E-04    4.000000E-02
     TEMPORAL STATISTIC: RUNNING AVERAGE
 289 ID: Wp4
     QUANTITY: W-VELOCITY
     Coordinates (X,Y,Z):    1.100000E-01   -1.000000E-04    4.000000E-02
     TEMPORAL STATISTIC: RUNNING AVERAGE
 290 ID: Wp4
     QUANTITY: W-VELOCITY
     Coordinates (X,Y,Z):    1.200000E-01   -1.000000E-04    4.000000E-02
     TEMPORAL STATISTIC: RUNNING AVERAGE
 291 ID: Wp4
     QUANTITY: W-VELOCITY
     Coordinates (X,Y,Z):    1.300000E-01   -1.000000E-04    4.000000E-02
     TEMPORAL STATISTIC: RUNNING AVERAGE
 292 ID: Wp4
     QUANTITY: W-VELOCITY
     Coordinates (X,Y,Z):    1.400000E-01   -1.000000E-04    4.000000E-02
     TEMPORAL STATISTIC: RUNNING AVERAGE
 293 ID: Wp4
     QUANTITY: W-VELOCITY
     Coordinates (X,Y,Z):    1.500000E-01   -1.000000E-04    4.000000E-02
     TEMPORAL STATISTIC: RUNNING AVERAGE
 294 ID: Wp4
     QUANTITY: W-VELOCITY
     Coordinates (X,Y,Z):    1.600000E-01   -1.000000E-04    4.000000E-02
     TEMPORAL STATISTIC: RUNNING AVERAGE
 295 ID: Wp6
     QUANTITY: W-VELOCITY
     Coordinates (X,Y,Z):   -4.000000E-02   -1.000000E-04    6.000000E-02
     TEMPORAL STATISTIC: RUNNING AVERAGE
 296 ID: Wp6
     QUANTITY: W-VELOCITY
     Coordinates (X,Y,Z):   -3.000000E-02   -1.000000E-04    6.000000E-02
     TEMPORAL STATISTIC: RUNNING AVERAGE
 297 ID: Wp6
     QUANTITY: W-VELOCITY
     Coordinates (X,Y,Z):   -2.000000E-02   -1.000000E-04    6.000000E-02
     TEMPORAL STATISTIC: RUNNING AVERAGE
 298 ID: Wp6
     QUANTITY: W-VELOCITY
     Coordinates (X,Y,Z):   -1.000000E-02   -1.000000E-04    6.000000E-02
     TEMPORAL STATISTIC: RUNNING AVERAGE
 299 ID: Wp6
     QUANTITY: W-VELOCITY
     Coordinates (X,Y,Z):   -1.000000E-04   -1.000000E-04    6.000000E-02
     TEMPORAL STATISTIC: RUNNING AVERAGE
 300 ID: Wp6
     QUANTITY: W-VELOCITY
     Coordinates (X,Y,Z):    1.000000E-02   -1.000000E-04    6.000000E-02
     TEMPORAL STATISTIC: RUNNING AVERAGE
 301 ID: Wp6
     QUANTITY: W-VELOCITY
     Coordinates (X,Y,Z):    2.000000E-02   -1.000000E-04    6.000000E-02
     TEMPORAL STATISTIC: RUNNING AVERAGE
 302 ID: Wp6
     QUANTITY: W-VELOCITY
     Coordinates (X,Y,Z):    3.000000E-02   -1.000000E-04    6.000000E-02
     TEMPORAL STATISTIC: RUNNING AVERAGE
 303 ID: Wp6
     QUANTITY: W-VELOCITY
     Coordinates (X,Y,Z):    4.000000E-02   -1.000000E-04    6.000000E-02
     TEMPORAL STATISTIC: RUNNING AVERAGE
 304 ID: Wp6
     QUANTITY: W-VELOCITY
     Coordinates (X,Y,Z):    5.000000E-02   -1.000000E-04    6.000000E-02
     TEMPORAL STATISTIC: RUNNING AVERAGE
 305 ID: Wp6
     QUANTITY: W-VELOCITY
     Coordinates (X,Y,Z):    6.000000E-02   -1.000000E-04    6.000000E-02
     TEMPORAL STATISTIC: RUNNING AVERAGE
 306 ID: Wp6
     QUANTITY: W-VELOCITY
     Coordinates (X,Y,Z):    7.000000E-02   -1.000000E-04    6.000000E-02
     TEMPORAL STATISTIC: RUNNING AVERAGE
 307 ID: Wp6
     QUANTITY: W-VELOCITY
     Coordinates (X,Y,Z):    8.000000E-02   -1.000000E-04    6.000000E-02
     TEMPORAL STATISTIC: RUNNING AVERAGE
 308 ID: Wp6
     QUANTITY: W-VELOCITY
     Coordinates (X,Y,Z):    9.000000E-02   -1.000000E-04    6.000000E-02
     TEMPORAL STATISTIC: RUNNING AVERAGE
 309 ID: Wp6
     QUANTITY: W-VELOCITY
     Coordinates (X,Y,Z):    1.000000E-01   -1.000000E-04    6.000000E-02
     TEMPORAL STATISTIC: RUNNING AVERAGE
 310 ID: Wp6
     QUANTITY: W-VELOCITY
     Coordinates (X,Y,Z):    1.100000E-01   -1.000000E-04    6.000000E-02
     TEMPORAL STATISTIC: RUNNING AVERAGE
 311 ID: Wp6
     QUANTITY: W-VELOCITY
     Coordinates (X,Y,Z):    1.200000E-01   -1.000000E-04    6.000000E-02
     TEMPORAL STATISTIC: RUNNING AVERAGE
 312 ID: Wp6
     QUANTITY: W-VELOCITY
     Coordinates (X,Y,Z):    1.300000E-01   -1.000000E-04    6.000000E-02
     TEMPORAL STATISTIC: RUNNING AVERAGE
 313 ID: Wp6
     QUANTITY: W-VELOCITY
     Coordinates (X,Y,Z):    1.400000E-01   -1.000000E-04    6.000000E-02
     TEMPORAL STATISTIC: RUNNING AVERAGE
 314 ID: Wp6
     QUANTITY: W-VELOCITY
     Coordinates (X,Y,Z):    1.500000E-01   -1.000000E-04    6.000000E-02
     TEMPORAL STATISTIC: RUNNING AVERAGE
 315 ID: Wp6
     QUANTITY: W-VELOCITY
     Coordinates (X,Y,Z):    1.600000E-01   -1.000000E-04    6.000000E-02
     TEMPORAL STATISTIC: RUNNING AVERAGE
 316 ID: Wp8
     QUANTITY: W-VELOCITY
     Coordinates (X,Y,Z):   -4.000000E-02   -1.000000E-04    8.000000E-02
     TEMPORAL STATISTIC: RUNNING AVERAGE
 317 ID: Wp8
     QUANTITY: W-VELOCITY
     Coordinates (X,Y,Z):   -3.000000E-02   -1.000000E-04    8.000000E-02
     TEMPORAL STATISTIC: RUNNING AVERAGE
 318 ID: Wp8
     QUANTITY: W-VELOCITY
     Coordinates (X,Y,Z):   -2.000000E-02   -1.000000E-04    8.000000E-02
     TEMPORAL STATISTIC: RUNNING AVERAGE
 319 ID: Wp8
     QUANTITY: W-VELOCITY
     Coordinates (X,Y,Z):   -1.000000E-02   -1.000000E-04    8.000000E-02
     TEMPORAL STATISTIC: RUNNING AVERAGE
 320 ID: Wp8
     QUANTITY: W-VELOCITY
     Coordinates (X,Y,Z):   -1.000000E-04   -1.000000E-04    8.000000E-02
     TEMPORAL STATISTIC: RUNNING AVERAGE
 321 ID: Wp8
     QUANTITY: W-VELOCITY
     Coordinates (X,Y,Z):    1.000000E-02   -1.000000E-04    8.000000E-02
     TEMPORAL STATISTIC: RUNNING AVERAGE
 322 ID: Wp8
     QUANTITY: W-VELOCITY
     Coordinates (X,Y,Z):    2.000000E-02   -1.000000E-04    8.000000E-02
     TEMPORAL STATISTIC: RUNNING AVERAGE
 323 ID: Wp8
     QUANTITY: W-VELOCITY
     Coordinates (X,Y,Z):    3.000000E-02   -1.000000E-04    8.000000E-02
     TEMPORAL STATISTIC: RUNNING AVERAGE
 324 ID: Wp8
     QUANTITY: W-VELOCITY
     Coordinates (X,Y,Z):    4.000000E-02   -1.000000E-04    8.000000E-02
     TEMPORAL STATISTIC: RUNNING AVERAGE
 325 ID: Wp8
     QUANTITY: W-VELOCITY
     Coordinates (X,Y,Z):    5.000000E-02   -1.000000E-04    8.000000E-02
     TEMPORAL STATISTIC: RUNNING AVERAGE
 326 ID: Wp8
     QUANTITY: W-VELOCITY
     Coordinates (X,Y,Z):    6.000000E-02   -1.000000E-04    8.000000E-02
     TEMPORAL STATISTIC: RUNNING AVERAGE
 327 ID: Wp8
     QUANTITY: W-VELOCITY
     Coordinates (X,Y,Z):    7.000000E-02   -1.000000E-04    8.000000E-02
     TEMPORAL STATISTIC: RUNNING AVERAGE
 328 ID: Wp8
     QUANTITY: W-VELOCITY
     Coordinates (X,Y,Z):    8.000000E-02   -1.000000E-04    8.000000E-02
     TEMPORAL STATISTIC: RUNNING AVERAGE
 329 ID: Wp8
     QUANTITY: W-VELOCITY
     Coordinates (X,Y,Z):    9.000000E-02   -1.000000E-04    8.000000E-02
     TEMPORAL STATISTIC: RUNNING AVERAGE
 330 ID: Wp8
     QUANTITY: W-VELOCITY
     Coordinates (X,Y,Z):    1.000000E-01   -1.000000E-04    8.000000E-02
     TEMPORAL STATISTIC: RUNNING AVERAGE
 331 ID: Wp8
     QUANTITY: W-VELOCITY
     Coordinates (X,Y,Z):    1.100000E-01   -1.000000E-04    8.000000E-02
     TEMPORAL STATISTIC: RUNNING AVERAGE
 332 ID: Wp8
     QUANTITY: W-VELOCITY
     Coordinates (X,Y,Z):    1.200000E-01   -1.000000E-04    8.000000E-02
     TEMPORAL STATISTIC: RUNNING AVERAGE
 333 ID: Wp8
     QUANTITY: W-VELOCITY
     Coordinates (X,Y,Z):    1.300000E-01   -1.000000E-04    8.000000E-02
     TEMPORAL STATISTIC: RUNNING AVERAGE
 334 ID: Wp8
     QUANTITY: W-VELOCITY
     Coordinates (X,Y,Z):    1.400000E-01   -1.000000E-04    8.000000E-02
     TEMPORAL STATISTIC: RUNNING AVERAGE
 335 ID: Wp8
     QUANTITY: W-VELOCITY
     Coordinates (X,Y,Z):    1.500000E-01   -1.000000E-04    8.000000E-02
     TEMPORAL STATISTIC: RUNNING AVERAGE
 336 ID: Wp8
     QUANTITY: W-VELOCITY
     Coordinates (X,Y,Z):    1.600000E-01   -1.000000E-04    8.000000E-02
     TEMPORAL STATISTIC: RUNNING AVERAGE
 337 ID: Wp10
     QUANTITY: W-VELOCITY
     Coordinates (X,Y,Z):   -4.000000E-02   -1.000000E-04    1.000000E-01
     TEMPORAL STATISTIC: RUNNING AVERAGE
 338 ID: Wp10
     QUANTITY: W-VELOCITY
     Coordinates (X,Y,Z):   -3.000000E-02   -1.000000E-04    1.000000E-01
     TEMPORAL STATISTIC: RUNNING AVERAGE
 339 ID: Wp10
     QUANTITY: W-VELOCITY
     Coordinates (X,Y,Z):   -2.000000E-02   -1.000000E-04    1.000000E-01
     TEMPORAL STATISTIC: RUNNING AVERAGE
 340 ID: Wp10
     QUANTITY: W-VELOCITY
     Coordinates (X,Y,Z):   -1.000000E-02   -1.000000E-04    1.000000E-01
     TEMPORAL STATISTIC: RUNNING AVERAGE
 341 ID: Wp10
     QUANTITY: W-VELOCITY
     Coordinates (X,Y,Z):   -1.000000E-04   -1.000000E-04    1.000000E-01
     TEMPORAL STATISTIC: RUNNING AVERAGE
 342 ID: Wp10
     QUANTITY: W-VELOCITY
     Coordinates (X,Y,Z):    1.000000E-02   -1.000000E-04    1.000000E-01
     TEMPORAL STATISTIC: RUNNING AVERAGE
 343 ID: Wp10
     QUANTITY: W-VELOCITY
     Coordinates (X,Y,Z):    2.000000E-02   -1.000000E-04    1.000000E-01
     TEMPORAL STATISTIC: RUNNING AVERAGE
 344 ID: Wp10
     QUANTITY: W-VELOCITY
     Coordinates (X,Y,Z):    3.000000E-02   -1.000000E-04    1.000000E-01
     TEMPORAL STATISTIC: RUNNING AVERAGE
 345 ID: Wp10
     QUANTITY: W-VELOCITY
     Coordinates (X,Y,Z):    4.000000E-02   -1.000000E-04    1.000000E-01
     TEMPORAL STATISTIC: RUNNING AVERAGE
 346 ID: Wp10
     QUANTITY: W-VELOCITY
     Coordinates (X,Y,Z):    5.000000E-02   -1.000000E-04    1.000000E-01
     TEMPORAL STATISTIC: RUNNING AVERAGE
 347 ID: Wp10
     QUANTITY: W-VELOCITY
     Coordinates (X,Y,Z):    6.000000E-02   -1.000000E-04    1.000000E-01
     TEMPORAL STATISTIC: RUNNING AVERAGE
 348 ID: Wp10
     QUANTITY: W-VELOCITY
     Coordinates (X,Y,Z):    7.000000E-02   -1.000000E-04    1.000000E-01
     TEMPORAL STATISTIC: RUNNING AVERAGE
 349 ID: Wp10
     QUANTITY: W-VELOCITY
     Coordinates (X,Y,Z):    8.000000E-02   -1.000000E-04    1.000000E-01
     TEMPORAL STATISTIC: RUNNING AVERAGE
 350 ID: Wp10
     QUANTITY: W-VELOCITY
     Coordinates (X,Y,Z):    9.000000E-02   -1.000000E-04    1.000000E-01
     TEMPORAL STATISTIC: RUNNING AVERAGE
 351 ID: Wp10
     QUANTITY: W-VELOCITY
     Coordinates (X,Y,Z):    1.000000E-01   -1.000000E-04    1.000000E-01
     TEMPORAL STATISTIC: RUNNING AVERAGE
 352 ID: Wp10
     QUANTITY: W-VELOCITY
     Coordinates (X,Y,Z):    1.100000E-01   -1.000000E-04    1.000000E-01
     TEMPORAL STATISTIC: RUNNING AVERAGE
 353 ID: Wp10
     QUANTITY: W-VELOCITY
     Coordinates (X,Y,Z):    1.200000E-01   -1.000000E-04    1.000000E-01
     TEMPORAL STATISTIC: RUNNING AVERAGE
 354 ID: Wp10
     QUANTITY: W-VELOCITY
     Coordinates (X,Y,Z):    1.300000E-01   -1.000000E-04    1.000000E-01
     TEMPORAL STATISTIC: RUNNING AVERAGE
 355 ID: Wp10
[...]
       Total Heat Release Rate:              0.004 kW
       Radiation Loss to Boundaries:        -0.020 kW
       Mesh    8
       Max CFL number:  0.71E+00 at (2,13,32)
       Max divergence:  0.15E+02 at (7,7,21)
       Min divergence: -0.10E+02 at (4,2,26)
       Max VN number:   0.11E+00 at (6,18,29)
       Total Heat Release Rate:              0.005 kW
       Radiation Loss to Boundaries:        -0.033 kW
 
       Time Step   63600   August 18, 2023  01:09:54
       Step Size:    0.869E-03 s, Total Time:      59.50 s
       Pressure Iterations: 9
       Maximum Velocity Error:  0.86E-03 on Mesh 1 at (30,30,24)
       Maximum Pressure Error:  0.27E+05 on Mesh 5 at (27,28,22)
       ---------------------------------------------------------------
       Mesh    1
       Max CFL number:  0.47E+00 at (30,28,40)
       Max divergence:  0.36E+02 at (25,21,6)
       Min divergence: -0.14E+02 at (30,27,36)
       Max VN number:   0.10E+00 at (30,27,35)
       Total Heat Release Rate:              3.219 kW
       Radiation Loss to Boundaries:        -0.683 kW
       Mesh    2
       Max CFL number:  0.54E+00 at (1,28,40)
       Max divergence:  0.50E+02 at (1,30,40)
       Min divergence: -0.13E+02 at (5,29,17)
       Max VN number:   0.14E+00 at (1,30,40)
       Total Heat Release Rate:              3.563 kW
       Radiation Loss to Boundaries:        -0.658 kW
       Mesh    3
       Max CFL number:  0.42E+00 at (30,1,38)
       Max divergence:  0.34E+02 at (25,9,6)
       Min divergence: -0.11E+02 at (29,5,26)
       Max VN number:   0.75E-01 at (17,7,6)
       Total Heat Release Rate:              3.934 kW
       Radiation Loss to Boundaries:        -1.012 kW
       Mesh    4
       Max CFL number:  0.42E+00 at (1,1,38)
       Max divergence:  0.42E+02 at (1,4,25)
       Min divergence: -0.99E+01 at (7,7,15)
       Max VN number:   0.11E+00 at (3,1,40)
       Total Heat Release Rate:              3.321 kW
       Radiation Loss to Boundaries:        -0.862 kW
       Mesh    5
       Max CFL number:  0.94E+00 at (27,26,22)
       Max divergence:  0.57E+02 at (30,30,2)
       Min divergence: -0.30E+02 at (29,24,33)
       Max VN number:   0.18E+00 at (29,24,32)
       Total Heat Release Rate:              0.387 kW
       Radiation Loss to Boundaries:        -0.128 kW
       Mesh    6
       Max CFL number:  0.77E+00 at (1,26,32)
       Max divergence:  0.59E+02 at (1,30,1)
       Min divergence: -0.11E+02 at (1,23,29)
       Max VN number:   0.16E+00 at (1,30,1)
       Total Heat Release Rate:              0.135 kW
       Radiation Loss to Boundaries:        -0.037 kW
       Mesh    7
       Max CFL number:  0.48E+00 at (30,12,40)
       Max divergence:  0.26E+02 at (28,1,5)
       Min divergence: -0.20E+02 at (30,1,4)
       Max VN number:   0.10E+00 at (30,1,3)
       Total Heat Release Rate:              0.040 kW
       Radiation Loss to Boundaries:        -0.007 kW
       Mesh    8
       Max CFL number:  0.45E+00 at (3,2,35)
       Max divergence:  0.23E+02 at (3,1,1)
       Min divergence: -0.91E+01 at (1,1,1)
       Max VN number:   0.87E-01 at (1,1,1)
       Total Heat Release Rate:              0.013 kW
       Radiation Loss to Boundaries:        -0.005 kW
 
       Time Step   63700   August 18, 2023  01:11:01
       Step Size:    0.116E-02 s, Total Time:      59.60 s
       Pressure Iterations: 11
       Maximum Velocity Error:  0.90E-03 on Mesh 6 at (1,30,5)
       Maximum Pressure Error:  0.17E+05 on Mesh 5 at (28,25,18)
       ---------------------------------------------------------------
       Mesh    1
       Max CFL number:  0.82E+00 at (29,30,37)
       Max divergence:  0.26E+02 at (26,26,6)
       Min divergence: -0.84E+01 at (29,26,12)
       Max VN number:   0.11E+00 at (27,16,6)
       Total Heat Release Rate:              2.985 kW
       Radiation Loss to Boundaries:        -0.527 kW
       Mesh    2
       Max CFL number:  0.78E+00 at (1,30,39)
       Max divergence:  0.38E+02 at (3,22,6)
       Min divergence: -0.95E+01 at (1,27,13)
       Max VN number:   0.16E+00 at (15,27,6)
       Total Heat Release Rate:              2.706 kW
       Radiation Loss to Boundaries:        -0.473 kW
       Mesh    3
       Max CFL number:  0.81E+00 at (29,1,37)
       Max divergence:  0.32E+02 at (28,7,33)
       Min divergence: -0.14E+02 at (28,14,31)
       Max VN number:   0.15E+00 at (24,14,6)
       Total Heat Release Rate:              5.069 kW
       Radiation Loss to Boundaries:        -1.264 kW
       Mesh    4
       Max CFL number:  0.73E+00 at (2,7,30)
       Max divergence:  0.42E+02 at (2,3,26)
       Min divergence: -0.17E+02 at (4,11,34)
       Max VN number:   0.24E+00 at (7,14,6)
       Total Heat Release Rate:              4.401 kW
       Radiation Loss to Boundaries:        -0.967 kW
       Mesh    5
       Max CFL number:  0.93E+00 at (28,26,12)
       Max divergence:  0.21E+02 at (30,24,9)
       Min divergence: -0.20E+02 at (28,25,16)
       Max VN number:   0.17E+00 at (28,25,15)
       Total Heat Release Rate:              0.102 kW
       Radiation Loss to Boundaries:        -0.149 kW
       Mesh    6
       Max CFL number:  0.87E+00 at (2,26,22)
       Max divergence:  0.28E+02 at (1,24,8)
       Min divergence: -0.19E+02 at (1,24,6)
       Max VN number:   0.15E+00 at (1,28,22)
       Total Heat Release Rate:              0.054 kW
       Radiation Loss to Boundaries:        -0.091 kW
       Mesh    7
       Max CFL number:  0.84E+00 at (27,1,25)
       Max divergence:  0.14E+02 at (29,4,3)
       Min divergence: -0.12E+02 at (30,1,17)
       Max VN number:   0.12E+00 at (27,1,24)
       Total Heat Release Rate:              0.041 kW
       Radiation Loss to Boundaries:        -0.028 kW
       Mesh    8
       Max CFL number:  0.66E+00 at (1,1,3)
       Max divergence:  0.14E+02 at (1,2,15)
       Min divergence: -0.13E+02 at (1,1,16)
       Max VN number:   0.12E+00 at (1,1,15)
       Total Heat Release Rate:              0.015 kW
       Radiation Loss to Boundaries:        -0.014 kW
 
       Time Step   63800   August 18, 2023  01:12:17
       Step Size:    0.908E-03 s, Total Time:      59.71 s
       Pressure Iterations: 10
       Maximum Velocity Error:  0.82E-03 on Mesh 3 at (30,1,40)
       Maximum Pressure Error:  0.18E+05 on Mesh 8 at (5,7,13)
       ---------------------------------------------------------------
       Mesh    1
       Max CFL number:  0.69E+00 at (30,30,33)
       Max divergence:  0.32E+02 at (28,30,23)
       Min divergence: -0.15E+02 at (25,29,28)
       Max VN number:   0.14E+00 at (24,17,6)
       Total Heat Release Rate:              2.888 kW
       Radiation Loss to Boundaries:        -0.433 kW
       Mesh    2
       Max CFL number:  0.67E+00 at (1,30,40)
       Max divergence:  0.53E+02 at (2,30,26)
       Min divergence: -0.16E+02 at (3,29,23)
       Max VN number:   0.19E+00 at (14,24,6)
       Total Heat Release Rate:              2.222 kW
       Radiation Loss to Boundaries:        -0.406 kW
       Mesh    3
       Max CFL number:  0.83E+00 at (27,4,39)
       Max divergence:  0.69E+02 at (26,1,29)
       Min divergence: -0.10E+02 at (25,1,27)
       Max VN number:   0.21E+00 at (24,14,6)
       Total Heat Release Rate:              4.674 kW
       Radiation Loss to Boundaries:        -0.714 kW
       Mesh    4
       Max CFL number:  0.77E+00 at (1,2,37)
       Max divergence:  0.44E+02 at (2,1,27)
       Min divergence: -0.72E+01 at (4,14,39)
       Max VN number:   0.20E+00 at (7,14,6)
       Total Heat Release Rate:              3.223 kW
       Radiation Loss to Boundaries:        -0.463 kW
       Mesh    5
       Max CFL number:  0.69E+00 at (24,29,38)
       Max divergence:  0.20E+02 at (21,27,9)
       Min divergence: -0.11E+02 at (28,21,28)
       Max VN number:   0.11E+00 at (24,27,38)
       Total Heat Release Rate:              0.484 kW
       Radiation Loss to Boundaries:        -0.371 kW
       Mesh    6
       Max CFL number:  0.67E+00 at (5,29,10)
       Max divergence:  0.16E+02 at (1,30,10)
       Min divergence: -0.13E+02 at (5,30,12)
       Max VN number:   0.11E+00 at (5,30,11)
       Total Heat Release Rate:              0.057 kW
       Radiation Loss to Boundaries:        -0.039 kW
       Mesh    7
       Max CFL number:  0.89E+00 at (26,6,3)
       Max divergence:  0.43E+02 at (28,4,4)
       Min divergence: -0.10E+02 at (30,1,5)
       Max VN number:   0.14E+00 at (30,1,4)
       Total Heat Release Rate:              3.052 kW
       Radiation Loss to Boundaries:        -0.893 kW
       Mesh    8
       Max CFL number:  0.91E+00 at (1,1,2)
       Max divergence:  0.36E+02 at (1,3,5)
       Min divergence: -0.14E+02 at (7,11,12)
       Max VN number:   0.16E+00 at (1,1,2)
       Total Heat Release Rate:              3.036 kW
       Radiation Loss to Boundaries:        -1.080 kW
 
       Time Step   63900   August 18, 2023  01:13:25
       Step Size:    0.796E-03 s, Total Time:      59.79 s
       Pressure Iterations: 9
       Maximum Velocity Error:  0.85E-03 on Mesh 6 at (1,30,30)
       Maximum Pressure Error:  0.26E+05 on Mesh 8 at (2,5,27)
       ---------------------------------------------------------------
       Mesh    1
       Max CFL number:  0.67E+00 at (26,30,40)
       Max divergence:  0.55E+02 at (29,30,40)
       Min divergence: -0.12E+02 at (28,28,39)
       Max VN number:   0.11E+00 at (29,30,40)
       Total Heat Release Rate:              3.558 kW
       Radiation Loss to Boundaries:        -0.748 kW
       Mesh    2
       Max CFL number:  0.56E+00 at (1,29,40)
       Max divergence:  0.34E+02 at (2,28,40)
       Min divergence: -0.30E+02 at (4,28,35)
       Max VN number:   0.16E+00 at (14,24,6)
       Total Heat Release Rate:              3.401 kW
       Radiation Loss to Boundaries:        -0.707 kW
       Mesh    3
       Max CFL number:  0.69E+00 at (27,1,40)
       Max divergence:  0.38E+02 at (20,2,6)
       Min divergence: -0.10E+02 at (29,13,17)
       Max VN number:   0.75E-01 at (28,1,21)
       Total Heat Release Rate:              3.093 kW
       Radiation Loss to Boundaries:        -0.677 kW
       Mesh    4
       Max CFL number:  0.49E+00 at (1,1,40)
       Max divergence:  0.35E+02 at (13,8,6)
       Min divergence: -0.14E+02 at (1,3,26)
       Max VN number:   0.95E-01 at (7,14,6)
       Total Heat Release Rate:              2.516 kW
       Radiation Loss to Boundaries:        -0.499 kW
       Mesh    5
       Max CFL number:  0.82E+00 at (25,28,28)
       Max divergence:  0.35E+02 at (28,30,1)
       Min divergence: -0.20E+02 at (30,28,1)
       Max VN number:   0.11E+00 at (30,28,1)
       Total Heat Release Rate:              0.049 kW
       Radiation Loss to Boundaries:        -0.100 kW
       Mesh    6
       Max CFL number:  0.78E+00 at (1,30,29)
       Max divergence:  0.20E+02 at (1,27,1)
       Min divergence: -0.15E+02 at (5,29,29)
       Max VN number:   0.10E+00 at (5,28,28)
       Total Heat Release Rate:              0.010 kW
       Radiation Loss to Boundaries:        -0.015 kW
       Mesh    7
       Max CFL number:  0.84E+00 at (28,5,16)
       Max divergence:  0.29E+02 at (27,1,8)
       Min divergence: -0.16E+02 at (24,2,10)
       Max VN number:   0.14E+00 at (28,5,16)
       Total Heat Release Rate:              0.392 kW
       Radiation Loss to Boundaries:        -0.289 kW
       Mesh    8
       Max CFL number:  0.79E+00 at (5,5,23)
       Max divergence:  0.29E+02 at (5,1,29)
       Min divergence: -0.27E+02 at (5,2,29)
       Max VN number:   0.16E+00 at (2,5,26)
       Total Heat Release Rate:              0.115 kW
       Radiation Loss to Boundaries:        -0.185 kW
 
       Time Step   64000   August 18, 2023  01:14:30
       Step Size:    0.963E-03 s, Total Time:      59.88 s
       Pressure Iterations: 9
       Maximum Velocity Error:  0.80E-03 on Mesh 5 at (30,28,17)
       Maximum Pressure Error:  0.29E+05 on Mesh 6 at (3,24,9)
       ---------------------------------------------------------------
       Mesh    1
       Max CFL number:  0.65E+00 at (30,26,39)
       Max divergence:  0.43E+02 at (30,21,6)
       Min divergence: -0.11E+02 at (28,28,34)
       Max VN number:   0.10E+00 at (28,30,29)
       Total Heat Release Rate:              3.158 kW
       Radiation Loss to Boundaries:        -0.686 kW
       Mesh    2
       Max CFL number:  0.67E+00 at (3,27,40)
       Max divergence:  0.34E+02 at (12,30,6)
       Min divergence: -0.10E+02 at (4,29,29)
       Max VN number:   0.16E+00 at (15,27,6)
       Total Heat Release Rate:              2.813 kW
       Radiation Loss to Boundaries:        -0.543 kW
       Mesh    3
       Max CFL number:  0.37E+00 at (30,1,31)
       Max divergence:  0.37E+02 at (24,10,6)
       Min divergence: -0.12E+02 at (30,11,22)
       Max VN number:   0.85E-01 at (16,4,6)
       Total Heat Release Rate:              3.156 kW
       Radiation Loss to Boundaries:        -0.805 kW
       Mesh    4
       Max CFL number:  0.39E+00 at (1,1,27)
       Max divergence:  0.38E+02 at (5,12,6)
       Min divergence: -0.11E+02 at (10,7,13)
       Max VN number:   0.15E+00 at (4,15,6)
       Total Heat Release Rate:              3.364 kW
       Radiation Loss to Boundaries:        -0.750 kW
       Mesh    5
       Max CFL number:  0.78E+00 at (29,30,26)
       Max divergence:  0.20E+02 at (28,25,12)
       Min divergence: -0.27E+02 at (30,27,23)
       Max VN number:   0.18E+00 at (30,27,23)
       Total Heat Release Rate:              0.017 kW
       Radiation Loss to Boundaries:        -0.041 kW
       Mesh    6
       Max CFL number:  0.86E+00 at (4,25,4)
       Max divergence:  0.24E+02 at (4,25,9)
       Min divergence: -0.22E+02 at (3,24,9)
       Max VN number:   0.17E+00 at (3,24,8)
       Total Heat Release Rate:              0.052 kW
       Radiation Loss to Boundaries:        -0.105 kW
       Mesh    7
       Max CFL number:  0.83E+00 at (27,7,28)
       Max divergence:  0.73E+01 at (28,1,26)
       Min divergence: -0.13E+02 at (29,1,26)
       Max VN number:   0.11E+00 at (29,1,25)
       Total Heat Release Rate:              0.005 kW
       Radiation Loss to Boundaries:        -0.019 kW
       Mesh    8
       Max CFL number:  0.70E+00 at (1,8,34)
       Max divergence:  0.73E+01 at (1,8,37)
       Min divergence: -0.71E+01 at (7,11,37)
       Max VN number:   0.10E+00 at (5,14,30)
       Total Heat Release Rate:              0.003 kW
       Radiation Loss to Boundaries:        -0.018 kW
 
       Time Step   64100   August 18, 2023  01:15:34
       Step Size:    0.106E-02 s, Total Time:      59.98 s
       Pressure Iterations: 10
       Maximum Velocity Error:  0.96E-03 on Mesh 2 at (1,30,6)
       Maximum Pressure Error:  0.88E+04 on Mesh 6 at (4,27,10)
       ---------------------------------------------------------------
       Mesh    1
       Max CFL number:  0.64E+00 at (28,25,39)
       Max divergence:  0.73E+02 at (29,30,29)
       Min divergence: -0.94E+01 at (27,24,40)
       Max VN number:   0.18E+00 at (29,30,29)
       Total Heat Release Rate:              3.148 kW
       Radiation Loss to Boundaries:        -0.546 kW
       Mesh    2
       Max CFL number:  0.73E+00 at (2,30,38)
       Max divergence:  0.36E+02 at (1,28,34)
       Min divergence: -0.12E+02 at (2,29,40)
       Max VN number:   0.13E+00 at (15,27,6)
       Total Heat Release Rate:              3.107 kW
       Radiation Loss to Boundaries:        -0.600 kW
       Mesh    3
       Max CFL number:  0.59E+00 at (30,1,38)
       Max divergence:  0.37E+02 at (27,3,20)
       Min divergence: -0.14E+02 at (26,4,32)
       Max VN number:   0.15E+00 at (27,15,6)
       Total Heat Release Rate:              3.782 kW
       Radiation Loss to Boundaries:        -0.967 kW
       Mesh    4
       Max CFL number:  0.70E+00 at (2,1,37)
       Max divergence:  0.42E+02 at (3,1,38)
       Min divergence: -0.14E+02 at (3,5,37)
       Max VN number:   0.14E+00 at (3,2,36)
       Total Heat Release Rate:              3.870 kW
       Radiation Loss to Boundaries:        -0.899 kW
       Mesh    5
       Max CFL number:  0.82E+00 at (30,20,33)
       Max divergence:  0.26E+02 at (28,25,2)
       Min divergence: -0.15E+02 at (27,23,19)
       Max VN number:   0.17E+00 at (29,27,9)
       Total Heat Release Rate:              0.043 kW
       Radiation Loss to Boundaries:        -0.033 kW
       Mesh    6
       Max CFL number:  0.88E+00 at (2,20,33)
       Max divergence:  0.34E+02 at (4,28,11)
       Min divergence: -0.21E+02 at (2,26,15)
       Max VN number:   0.15E+00 at (1,26,15)
       Total Heat Release Rate:              0.346 kW
       Radiation Loss to Boundaries:        -0.258 kW
       Mesh    7
       Max CFL number:  0.64E+00 at (28,2,39)
       Max divergence:  0.30E+01 at (26,1,30)
       Min divergence: -0.23E+01 at (13,15,40)
       Max VN number:   0.94E-01 at (28,2,38)
       Mesh    8
       Max CFL number:  0.69E+00 at (6,21,38)
       Max divergence:  0.32E+01 at (1,1,1)
       Min divergence: -0.40E+01 at (11,4,40)
       Max VN number:   0.99E-01 at (4,1,26)
       Radiation Loss to Boundaries:         0.003 kW
 
       Time Step   64123   August 18, 2023  01:15:49
       Step Size:    0.159E-03 s, Total Time:      60.00 s
       Pressure Iterations: 44
       Maximum Velocity Error:  0.97E-03 on Mesh 3 at (30,1,6)
       Maximum Pressure Error:  0.40E+05 on Mesh 4 at (8,5,7)
       ---------------------------------------------------------------
       Mesh    1
       Max CFL number:  0.94E-01 at (28,30,36)
       Max divergence:  0.44E+02 at (30,28,34)
       Min divergence: -0.11E+02 at (26,29,34)
       Max VN number:   0.25E-01 at (30,27,36)
       Total Heat Release Rate:              2.984 kW
       Radiation Loss to Boundaries:        -0.551 kW
       Mesh    2
       Max CFL number:  0.12E+00 at (3,30,37)
       Max divergence:  0.49E+02 at (2,30,36)
       Min divergence: -0.86E+01 at (4,29,40)
       Max VN number:   0.25E-01 at (3,30,40)
       Total Heat Release Rate:              2.802 kW
       Radiation Loss to Boundaries:        -0.463 kW
       Mesh    3
       Max CFL number:  0.97E-01 at (30,3,37)
       Max divergence:  0.55E+02 at (28,2,35)
       Min divergence: -0.13E+02 at (26,4,36)
       Max VN number:   0.26E-01 at (27,15,6)
       Total Heat Release Rate:              4.677 kW
       Radiation Loss to Boundaries:        -1.107 kW
       Mesh    4
       Max CFL number:  0.11E+00 at (3,1,37)
       Max divergence:  0.53E+02 at (2,2,36)
       Min divergence: -0.14E+02 at (6,4,27)
       Max VN number:   0.20E-01 at (4,1,39)
       Total Heat Release Rate:              4.443 kW
       Radiation Loss to Boundaries:        -1.040 kW
       Mesh    5
       Max CFL number:  0.12E+00 at (27,22,21)
       Max divergence:  0.22E+02 at (30,26,19)
       Min divergence: -0.15E+02 at (27,24,5)
       Max VN number:   0.19E-01 at (26,22,23)
       Total Heat Release Rate:              0.022 kW
       Radiation Loss to Boundaries:        -0.021 kW
       Mesh    6
       Max CFL number:  0.12E+00 at (1,25,19)
       Max divergence:  0.29E+02 at (3,29,1)
       Min divergence: -0.20E+02 at (6,27,12)
       Max VN number:   0.22E-01 at (2,25,17)
       Total Heat Release Rate:              0.152 kW
       Radiation Loss to Boundaries:        -0.202 kW
       Mesh    7
       Max CFL number:  0.82E-01 at (30,1,2)
       Max divergence:  0.73E+01 at (30,3,3)
       Min divergence: -0.68E+01 at (30,5,3)
       Max VN number:   0.11E-01 at (29,19,32)
       Total Heat Release Rate:              0.002 kW
       Mesh    8
       Max CFL number:  0.99E-01 at (6,17,39)
       Max divergence:  0.14E+02 at (4,7,1)
       Min divergence: -0.11E+02 at (2,5,2)
       Max VN number:   0.15E-01 at (2,5,3)
       Total Heat Release Rate:              0.008 kW
 


 Time Stepping Wall Clock Time (s):    46626.219
 Total Elapsed Wall Clock Time (s):    46643.578

STOP: FDS completed successfully (CHID: Waterloo_Methanol_GEOM_Predicted_1cm_cat)
