
 Fire Dynamics Simulator

 Current Date     : August 17, 2023  12:20:22
 Revision         : FDS-6.8.0-564-g879930a-master
 Revision Date    : Wed Aug 16 13:01:02 2023 -0400
 Compiler         : ifort version 2021.7.1
 Compilation Date : Aug 16, 2023 16:23:58

 MPI Enabled;    Number of MPI Processes:      64
 OpenMP Disabled

 MPI version: 3.1
 MPI library version: Intel(R) MPI Library 2021.7 for Linux* OS


 Job TITLE        : (Concatenated) University of Waterloo Methanol Pool Burner, 0.5 cm resolution
 Job ID string    : Waterloo_Methanol_GEOM_Prescribed_0p5cm_cat


 Miscellaneous Parameters

   Simulation Start Time (s)          0.0
   Simulation End Time (s)           60.0
   Background Pressure (Pa)     101325.00
   Ambient Temperature (C)          20.00

   3D Cartesian
   LES Calculation
   Eddy Viscosity Model:  Deardorff (C_DEARDORFF = 0.10)
   Surface INERT Eddy Viscosity Model:  WALE (C_WALE = 0.60)
   Surface PAN Eddy Viscosity Model:  WALE (C_WALE = 0.60)
   Surface POOL Eddy Viscosity Model:  WALE (C_WALE = 0.60)
   Turbulent Prandtl Number:         0.50
   Turbulent Schmidt Number:         0.50


 Pressure solver information

   Solver:                          ULMAT
   Velocity tolerance (m/s):    1.000E-03
   Press eqn res tol (1/s^2):   8.000E+05
   Max pressure iterations:            100


 Mass Fraction Transformation Matrix to Convert Species Mixtures (Columns) to Primitive Species (Rows)

                         AIR       METHANOL  INTERMED  PRODUCTS
   NITROGEN              0.762470  0.000000  0.619236  0.660602
   OXYGEN                0.230997  0.000000  0.000000  0.000000
   CARBON DIOXIDE        0.000591  0.000000  0.000480  0.184016
   WATER VAPOR           0.005941  0.000000  0.216066  0.155382
   CARBON MONOXIDE       0.000000  0.000000  0.164218  0.000000
   SOOT                  0.000000  0.000000  0.000000  0.000000
   HYDROGEN              0.000000  0.000000  0.000000  0.000000
   HYDROGEN CYANIDE      0.000000  0.000000  0.000000  0.000000
   METHANOL              0.000000  1.000000  0.000000  0.000000


 Primitive Species Information

   NITROGEN
   Gas Species
   Molecular Weight (g/mol)                28.01340
   Ambient Density (kg/m^3)                1.165
           Enthalpy of Formation (J/kg)  0.000E+00

   OXYGEN
   Gas Species
   Molecular Weight (g/mol)                31.99880
   Ambient Density (kg/m^3)                1.330
           Enthalpy of Formation (J/kg)  0.000E+00

   CARBON DIOXIDE
   Gas Species
   Molecular Weight (g/mol)                44.00950
   Ambient Density (kg/m^3)                1.830
           Enthalpy of Formation (J/kg) -8.941E+06

   WATER VAPOR
   Gas Species
   Molecular Weight (g/mol)                18.01528
   Ambient Density (kg/m^3)                0.749
           Enthalpy of Formation (J/kg) -1.342E+07

   CARBON MONOXIDE
   Gas Species
   Molecular Weight (g/mol)                28.01010
   Ambient Density (kg/m^3)                1.164
           Enthalpy of Formation (J/kg) -3.946E+06

   SOOT
   Gas Species
   Molecular Weight (g/mol)                12.01070
   Ambient Density (kg/m^3)                0.499
           Enthalpy of Formation (J/kg)  0.000E+00

   HYDROGEN
   Gas Species
   Molecular Weight (g/mol)                 2.01588
   Ambient Density (kg/m^3)                0.084
           Enthalpy of Formation (J/kg)  0.000E+00

   HYDROGEN CYANIDE
   Gas Species
   Molecular Weight (g/mol)                27.02534
   Ambient Density (kg/m^3)                1.123
           Enthalpy of Formation (J/kg)  4.924E+06

   METHANOL
   Gas Species
   Molecular Weight (g/mol)                32.04186
   Ambient Density (kg/m^3)                1.332
           Enthalpy of Formation (J/kg) -6.271E+06


 Tracked (Lumped) Species Information

   AIR
   Molecular Weight (g/mol)            28.75198
   Ambient Density (kg/m^3)            1.195
   Initial Mass Fraction               1.000
   Enthalpy of Formation (J/kg)     -8.504E+04

   Sub Species                    Mass Fraction     Mole Fraction
   NITROGEN                       7.624699E-01      7.825727E-01
   OXYGEN                         2.309974E-01      2.075588E-01
   CARBON DIOXIDE                 5.914650E-04      3.864118E-04
   WATER VAPOR                    5.941209E-03      9.482037E-03
 
     Viscosity (kg/m/s) Ambient,  293 K:  1.796E-05
                                  500 K:  2.612E-05
                                 1000 K:  4.125E-05
                                 1500 K:  5.371E-05
                                 2000 K:  6.476E-05
   Therm. Cond. (W/m/K) Ambient,  293 K:  2.556E-02
                                  500 K:  3.814E-02
                                 1000 K:  6.686E-02
                                 1500 K:  9.249E-02
                                 2000 K:  1.153E-01
        Enthalpy (J/kg) Ambient,  293 K: -9.012E+04
                                  500 K:  1.222E+05
                                 1000 K:  6.721E+05
                                 1500 K:  1.270E+06
                                 2000 K:  1.896E+06
    Spec. Heat (J/kg/K) Ambient,  293 K:  1.016E+03
                                  500 K:  1.042E+03
                                 1000 K:  1.156E+03
                                 1500 K:  1.229E+03
                                 2000 K:  1.270E+03
   Diff. Coeff. (m^2/s) Ambient,  293 K:  1.991E-05
                                  500 K:  4.961E-05
                                 1000 K:  1.580E-04
                                 1500 K:  3.095E-04
                                 2000 K:  4.984E-04
 Gibbs Energy Amb. (kJ/mol),  293 K: -5.873E+01
                                  500 K: -1.007E+02
                                 1000 K: -2.117E+02
                                 1500 K: -3.312E+02
                                 2000 K: -4.568E+02

   METHANOL
   Molecular Weight (g/mol)            32.04186
   Ambient Density (kg/m^3)            1.332
   Initial Mass Fraction               0.000
   Enthalpy of Formation (J/kg)     -6.271E+06

   Sub Species                    Mass Fraction     Mole Fraction
   METHANOL                       1.000000E+00      1.000000E+00
 
     Viscosity (kg/m/s) Ambient,  293 K:  9.505E-06
                                  500 K:  1.644E-05
                                 1000 K:  3.130E-05
                                 1500 K:  4.324E-05
                                 2000 K:  5.347E-05
   Therm. Cond. (W/m/K) Ambient,  293 K:  1.365E-02
                                  500 K:  3.224E-02
                                 1000 K:  9.206E-02
                                 1500 K:  1.497E-01
                                 2000 K:  2.000E-01
        Enthalpy (J/kg) Ambient,  293 K: -6.278E+06
                                  500 K: -5.946E+06
                                 1000 K: -4.758E+06
                                 1500 K: -3.224E+06
                                 2000 K: -1.507E+06
    Spec. Heat (J/kg/K) Ambient,  293 K:  1.364E+03
                                  500 K:  1.863E+03
                                 1000 K:  2.794E+03
                                 1500 K:  3.289E+03
                                 2000 K:  3.553E+03
   Diff. Coeff. (m^2/s) Ambient,  293 K:  1.508E-05
                                  500 K:  4.034E-05
                                 1000 K:  1.345E-04
                                 1500 K:  2.667E-04
                                 2000 K:  4.310E-04
 Gibbs Energy Amb. (kJ/mol),  293 K: -2.712E+02
                                  500 K: -3.236E+02
                                 1000 K: -4.702E+02
                                 1500 K: -6.394E+02
                                 2000 K: -8.262E+02

   INTERMEDIATE PRODUCTS
   Molecular Weight (g/mol)            25.01739
   Ambient Density (kg/m^3)            1.040
   Initial Mass Fraction               0.000
   Enthalpy of Formation (J/kg)     -3.553E+06

   Sub Species                    Mass Fraction     Mole Fraction
   NITROGEN                       6.192356E-01      5.530090E-01
   CARBON DIOXIDE                 4.803549E-04      2.730599E-04
   WATER VAPOR                    2.160658E-01      3.000455E-01
   CARBON MONOXIDE                1.642182E-01      1.466725E-01
   SOOT                           0.000000E+00      0.000000E+00
   HYDROGEN                       0.000000E+00      0.000000E+00
   HYDROGEN CYANIDE               0.000000E+00      0.000000E+00
 
     Viscosity (kg/m/s) Ambient,  293 K:  1.563E-05
                                  500 K:  2.328E-05
                                 1000 K:  3.867E-05
                                 1500 K:  5.171E-05
                                 2000 K:  6.319E-05
   Therm. Cond. (W/m/K) Ambient,  293 K:  2.386E-02
                                  500 K:  3.661E-02
                                 1000 K:  6.938E-02
                                 1500 K:  1.020E-01
                                 2000 K:  1.319E-01
        Enthalpy (J/kg) Ambient,  293 K: -3.559E+06
                                  500 K: -3.304E+06
                                 1000 K: -2.639E+06
                                 1500 K: -1.897E+06
                                 2000 K: -1.102E+06
    Spec. Heat (J/kg/K) Ambient,  293 K:  1.218E+03
                                  500 K:  1.252E+03
                                 1000 K:  1.413E+03
                                 1500 K:  1.545E+03
                                 2000 K:  1.629E+03
   Diff. Coeff. (m^2/s) Ambient,  293 K:  2.018E-05
                                  500 K:  5.190E-05
                                 1000 K:  1.692E-04
                                 1500 K:  3.337E-04
                                 2000 K:  5.389E-04
 Gibbs Energy Amb. (kJ/mol),  293 K: -1.269E+02
                                  500 K: -1.683E+02
                                 1000 K: -2.783E+02
                                 1500 K: -3.973E+02
                                 2000 K: -5.226E+02

   PRODUCTS
   Molecular Weight (g/mol)            27.48164
   Ambient Density (kg/m^3)            1.142
   Initial Mass Fraction               0.000
   Enthalpy of Formation (J/kg)     -3.731E+06

   Sub Species                    Mass Fraction     Mole Fraction
   NITROGEN                       6.606015E-01      6.480618E-01
   CARBON DIOXIDE                 1.840164E-01      1.149087E-01
   WATER VAPOR                    1.553821E-01      2.370296E-01
   CARBON MONOXIDE                0.000000E+00      0.000000E+00
   SOOT                           0.000000E+00      0.000000E+00
   HYDROGEN CYANIDE               0.000000E+00      0.000000E+00
 
     Viscosity (kg/m/s) Ambient,  293 K:  1.569E-05
                                  500 K:  2.344E-05
                                 1000 K:  3.873E-05
                                 1500 K:  5.150E-05
                                 2000 K:  6.274E-05
   Therm. Cond. (W/m/K) Ambient,  293 K:  2.304E-02
                                  500 K:  3.600E-02
                                 1000 K:  6.817E-02
                                 1500 K:  9.916E-02
                                 2000 K:  1.273E-01
        Enthalpy (J/kg) Ambient,  293 K: -3.737E+06
                                  500 K: -3.497E+06
                                 1000 K: -2.861E+06
                                 1500 K: -2.152E+06
                                 2000 K: -1.395E+06
    Spec. Heat (J/kg/K) Ambient,  293 K:  1.131E+03
                                  500 K:  1.188E+03
                                 1000 K:  1.354E+03
                                 1500 K:  1.474E+03
                                 2000 K:  1.547E+03
   Diff. Coeff. (m^2/s) Ambient,  293 K:  1.958E-05
                                  500 K:  5.013E-05
                                 1000 K:  1.629E-04
                                 1500 K:  3.209E-04
                                 2000 K:  5.180E-04
 Gibbs Energy Amb. (kJ/mol),  293 K: -1.672E+02
                                  500 K: -2.094E+02
                                 1000 K: -3.221E+02
                                 1500 K: -4.445E+02
                                 2000 K: -5.739E+02


 Gas Phase Reaction Information

   Reaction 1

      Priority:                                                               1

      Fuel                                           Heat of Combustion (kJ/kg)
      METHANOL                                                       12272.9204
      2-step reaction,  Total Heat of Combustion                     21104.3304

      Primitive Species Stoich. Coeff.
      Species ID                                                          Molar
      OXYGEN                                                          -1.000000
      WATER VAPOR                                                      2.000000
      CARBON MONOXIDE                                                  1.000000
      METHANOL                                                        -1.000000

      Tracked (Lumped) Species Stoich. Coeff.
      Species ID                                             Molar         Mass
      AIR                                                -4.817911    -4.323236
      METHANOL                                           -1.000000    -1.000000
      INTERMEDIATE PRODUCTS                               6.817911     5.323236

      Reaction Kinetics

      Fast chemistry

      ODE Solver:  EXPLICIT EULER

      Extinction Model:  EXTINCTION 2
      Auto-Ignition Temperature (C):            -273.1
      Critical Flame Temperature (C):           1257.0

      Prescribed Radiative Fraction:             0.220

   Reaction 2

      Priority:                                                               2

      Fuel                                           Heat of Combustion (kJ/kg)
      INTERMEDIATE PRODUCTS                                           1659.0305

      Primitive Species Stoich. Coeff.
      Species ID                                                          Molar
      OXYGEN                                                          -0.073336
      CARBON DIOXIDE                                                   0.146672
      CARBON MONOXIDE                                                 -0.146672

      Tracked (Lumped) Species Stoich. Coeff.
      Species ID                                             Molar         Mass
      AIR                                                -0.353328    -0.406072
      INTERMEDIATE PRODUCTS                              -1.000000    -1.000000
      PRODUCTS                                            1.279991     1.406072

      Reaction Kinetics

      Fast chemistry

      ODE Solver:  EXPLICIT EULER

      Prescribed Radiative Fraction:             0.220


 Material Information

   1 STEEL
     Emissivity:                                  0.800
     Density (kg/m3):                            7800.0
     Specific Heat (kJ/kg/K) Ambient,  293 K:  4.650E-01
                                       350 K:  4.650E-01
                                       500 K:  4.650E-01
                                       800 K:  4.650E-01
     Therm. Cond. (W/m/K) Ambient,     293 K:  5.400E+01
                                       350 K:  5.400E+01
                                       500 K:  5.400E+01
                                       800 K:  5.400E+01
     Enthalpy (kJ/kg) Ambient,         293 K:  1.362E+02
                                       350 K:  1.628E+02
                                       500 K:  2.325E+02
                                       800 K:  3.720E+02


 Surface Conditions

   0 INERT (DEFAULT)

   1 PAN
     Material List
          1  STEEL
     Layer  1
        Thickness   (m):  0.00300
        Density (kg/m3):  7800.00
        STEEL, Mass fraction:    1.00
     Reaction products considered from the first  0.50 layers.
     Total surface density    23.400 kg/m2
     Solid Phase Node, Layer, Coordinates(m):
                    0      1       0.0000000
                    1      1       0.0030000
     Exposed Backing

   2 POOL
     Wall or Vent Temperature (C)    64.6
     METHANOL Mass Flux (kg/s/m2)   1.465E-02

   3 OPEN
     Passive Vent to Atmosphere

   4 MIRROR
     Symmetry Plane

   5 INTERPOLATED

   6 PERIODIC

   7 HVAC

   8 MASSLESS TRACER

   9 DROPLET

  10 MASSLESS TARGET

  11 PERIODIC FLOW ONLY


 Lagrangian Particle Classes


 PROPerty Information

   1 TC
     Smokeview ID                sensor


 Cut-off Density and Temperature

    Minimum Temperature:  -259.1 C
    Maximum Temperature:  2726.8 C
    Minimum Density:  1.195E-01 kg/m3
    Maximum Density:  5.578E+01 kg/m3


 Device Information

   1 ID: Up2
     QUANTITY: RADIAL VELOCITY
     Coordinates (X,Y,Z):   -4.000000E-02   -5.000000E-05    2.000000E-02
     TEMPORAL STATISTIC: RUNNING AVERAGE
   2 ID: Up2
     QUANTITY: RADIAL VELOCITY
     Coordinates (X,Y,Z):   -3.000000E-02   -5.000000E-05    2.000000E-02
     TEMPORAL STATISTIC: RUNNING AVERAGE
   3 ID: Up2
     QUANTITY: RADIAL VELOCITY
     Coordinates (X,Y,Z):   -2.000000E-02   -5.000000E-05    2.000000E-02
     TEMPORAL STATISTIC: RUNNING AVERAGE
   4 ID: Up2
     QUANTITY: RADIAL VELOCITY
     Coordinates (X,Y,Z):   -1.000000E-02   -5.000000E-05    2.000000E-02
     TEMPORAL STATISTIC: RUNNING AVERAGE
   5 ID: Up2
     QUANTITY: RADIAL VELOCITY
     Coordinates (X,Y,Z):   -5.000000E-05   -5.000000E-05    2.000000E-02
     TEMPORAL STATISTIC: RUNNING AVERAGE
   6 ID: Up2
     QUANTITY: RADIAL VELOCITY
     Coordinates (X,Y,Z):    1.000000E-02   -5.000000E-05    2.000000E-02
     TEMPORAL STATISTIC: RUNNING AVERAGE
   7 ID: Up2
     QUANTITY: RADIAL VELOCITY
     Coordinates (X,Y,Z):    2.000000E-02   -5.000000E-05    2.000000E-02
     TEMPORAL STATISTIC: RUNNING AVERAGE
   8 ID: Up2
     QUANTITY: RADIAL VELOCITY
     Coordinates (X,Y,Z):    3.000000E-02   -5.000000E-05    2.000000E-02
     TEMPORAL STATISTIC: RUNNING AVERAGE
   9 ID: Up2
     QUANTITY: RADIAL VELOCITY
     Coordinates (X,Y,Z):    4.000000E-02   -5.000000E-05    2.000000E-02
     TEMPORAL STATISTIC: RUNNING AVERAGE
  10 ID: Up2
     QUANTITY: RADIAL VELOCITY
     Coordinates (X,Y,Z):    5.000000E-02   -5.000000E-05    2.000000E-02
     TEMPORAL STATISTIC: RUNNING AVERAGE
  11 ID: Up2
     QUANTITY: RADIAL VELOCITY
     Coordinates (X,Y,Z):    6.000000E-02   -5.000000E-05    2.000000E-02
     TEMPORAL STATISTIC: RUNNING AVERAGE
  12 ID: Up2
     QUANTITY: RADIAL VELOCITY
     Coordinates (X,Y,Z):    7.000000E-02   -5.000000E-05    2.000000E-02
     TEMPORAL STATISTIC: RUNNING AVERAGE
  13 ID: Up2
     QUANTITY: RADIAL VELOCITY
     Coordinates (X,Y,Z):    8.000000E-02   -5.000000E-05    2.000000E-02
     TEMPORAL STATISTIC: RUNNING AVERAGE
  14 ID: Up2
     QUANTITY: RADIAL VELOCITY
     Coordinates (X,Y,Z):    9.000000E-02   -5.000000E-05    2.000000E-02
     TEMPORAL STATISTIC: RUNNING AVERAGE
  15 ID: Up2
     QUANTITY: RADIAL VELOCITY
     Coordinates (X,Y,Z):    1.000000E-01   -5.000000E-05    2.000000E-02
     TEMPORAL STATISTIC: RUNNING AVERAGE
  16 ID: Up2
     QUANTITY: RADIAL VELOCITY
     Coordinates (X,Y,Z):    1.100000E-01   -5.000000E-05    2.000000E-02
     TEMPORAL STATISTIC: RUNNING AVERAGE
  17 ID: Up2
     QUANTITY: RADIAL VELOCITY
     Coordinates (X,Y,Z):    1.200000E-01   -5.000000E-05    2.000000E-02
     TEMPORAL STATISTIC: RUNNING AVERAGE
  18 ID: Up2
     QUANTITY: RADIAL VELOCITY
     Coordinates (X,Y,Z):    1.300000E-01   -5.000000E-05    2.000000E-02
     TEMPORAL STATISTIC: RUNNING AVERAGE
  19 ID: Up2
     QUANTITY: RADIAL VELOCITY
     Coordinates (X,Y,Z):    1.400000E-01   -5.000000E-05    2.000000E-02
     TEMPORAL STATISTIC: RUNNING AVERAGE
  20 ID: Up2
     QUANTITY: RADIAL VELOCITY
     Coordinates (X,Y,Z):    1.499500E-01   -5.000000E-05    2.000000E-02
     TEMPORAL STATISTIC: RUNNING AVERAGE
  21 ID: Up2
     QUANTITY: RADIAL VELOCITY
     Coordinates (X,Y,Z):    1.600000E-01   -5.000000E-05    2.000000E-02
     TEMPORAL STATISTIC: RUNNING AVERAGE
  22 ID: Up4
     QUANTITY: RADIAL VELOCITY
     Coordinates (X,Y,Z):   -4.000000E-02   -5.000000E-05    4.000000E-02
     TEMPORAL STATISTIC: RUNNING AVERAGE
  23 ID: Up4
     QUANTITY: RADIAL VELOCITY
     Coordinates (X,Y,Z):   -3.000000E-02   -5.000000E-05    4.000000E-02
     TEMPORAL STATISTIC: RUNNING AVERAGE
  24 ID: Up4
     QUANTITY: RADIAL VELOCITY
     Coordinates (X,Y,Z):   -2.000000E-02   -5.000000E-05    4.000000E-02
     TEMPORAL STATISTIC: RUNNING AVERAGE
  25 ID: Up4
     QUANTITY: RADIAL VELOCITY
     Coordinates (X,Y,Z):   -1.000000E-02   -5.000000E-05    4.000000E-02
     TEMPORAL STATISTIC: RUNNING AVERAGE
  26 ID: Up4
     QUANTITY: RADIAL VELOCITY
     Coordinates (X,Y,Z):   -5.000000E-05   -5.000000E-05    4.000000E-02
     TEMPORAL STATISTIC: RUNNING AVERAGE
  27 ID: Up4
     QUANTITY: RADIAL VELOCITY
     Coordinates (X,Y,Z):    1.000000E-02   -5.000000E-05    4.000000E-02
     TEMPORAL STATISTIC: RUNNING AVERAGE
  28 ID: Up4
     QUANTITY: RADIAL VELOCITY
     Coordinates (X,Y,Z):    2.000000E-02   -5.000000E-05    4.000000E-02
     TEMPORAL STATISTIC: RUNNING AVERAGE
  29 ID: Up4
     QUANTITY: RADIAL VELOCITY
     Coordinates (X,Y,Z):    3.000000E-02   -5.000000E-05    4.000000E-02
     TEMPORAL STATISTIC: RUNNING AVERAGE
  30 ID: Up4
     QUANTITY: RADIAL VELOCITY
     Coordinates (X,Y,Z):    4.000000E-02   -5.000000E-05    4.000000E-02
     TEMPORAL STATISTIC: RUNNING AVERAGE
  31 ID: Up4
     QUANTITY: RADIAL VELOCITY
     Coordinates (X,Y,Z):    5.000000E-02   -5.000000E-05    4.000000E-02
     TEMPORAL STATISTIC: RUNNING AVERAGE
  32 ID: Up4
     QUANTITY: RADIAL VELOCITY
     Coordinates (X,Y,Z):    6.000000E-02   -5.000000E-05    4.000000E-02
     TEMPORAL STATISTIC: RUNNING AVERAGE
  33 ID: Up4
     QUANTITY: RADIAL VELOCITY
     Coordinates (X,Y,Z):    7.000000E-02   -5.000000E-05    4.000000E-02
     TEMPORAL STATISTIC: RUNNING AVERAGE
  34 ID: Up4
     QUANTITY: RADIAL VELOCITY
     Coordinates (X,Y,Z):    8.000000E-02   -5.000000E-05    4.000000E-02
     TEMPORAL STATISTIC: RUNNING AVERAGE
  35 ID: Up4
     QUANTITY: RADIAL VELOCITY
     Coordinates (X,Y,Z):    9.000000E-02   -5.000000E-05    4.000000E-02
     TEMPORAL STATISTIC: RUNNING AVERAGE
  36 ID: Up4
     QUANTITY: RADIAL VELOCITY
     Coordinates (X,Y,Z):    1.000000E-01   -5.000000E-05    4.000000E-02
     TEMPORAL STATISTIC: RUNNING AVERAGE
  37 ID: Up4
     QUANTITY: RADIAL VELOCITY
     Coordinates (X,Y,Z):    1.100000E-01   -5.000000E-05    4.000000E-02
     TEMPORAL STATISTIC: RUNNING AVERAGE
  38 ID: Up4
     QUANTITY: RADIAL VELOCITY
     Coordinates (X,Y,Z):    1.200000E-01   -5.000000E-05    4.000000E-02
     TEMPORAL STATISTIC: RUNNING AVERAGE
  39 ID: Up4
     QUANTITY: RADIAL VELOCITY
     Coordinates (X,Y,Z):    1.300000E-01   -5.000000E-05    4.000000E-02
     TEMPORAL STATISTIC: RUNNING AVERAGE
  40 ID: Up4
     QUANTITY: RADIAL VELOCITY
     Coordinates (X,Y,Z):    1.400000E-01   -5.000000E-05    4.000000E-02
     TEMPORAL STATISTIC: RUNNING AVERAGE
  41 ID: Up4
     QUANTITY: RADIAL VELOCITY
     Coordinates (X,Y,Z):    1.499500E-01   -5.000000E-05    4.000000E-02
     TEMPORAL STATISTIC: RUNNING AVERAGE
  42 ID: Up4
     QUANTITY: RADIAL VELOCITY
     Coordinates (X,Y,Z):    1.600000E-01   -5.000000E-05    4.000000E-02
     TEMPORAL STATISTIC: RUNNING AVERAGE
  43 ID: Up6
     QUANTITY: RADIAL VELOCITY
     Coordinates (X,Y,Z):   -4.000000E-02   -5.000000E-05    6.000000E-02
     TEMPORAL STATISTIC: RUNNING AVERAGE
  44 ID: Up6
     QUANTITY: RADIAL VELOCITY
     Coordinates (X,Y,Z):   -3.000000E-02   -5.000000E-05    6.000000E-02
     TEMPORAL STATISTIC: RUNNING AVERAGE
  45 ID: Up6
     QUANTITY: RADIAL VELOCITY
     Coordinates (X,Y,Z):   -2.000000E-02   -5.000000E-05    6.000000E-02
     TEMPORAL STATISTIC: RUNNING AVERAGE
  46 ID: Up6
     QUANTITY: RADIAL VELOCITY
     Coordinates (X,Y,Z):   -1.000000E-02   -5.000000E-05    6.000000E-02
     TEMPORAL STATISTIC: RUNNING AVERAGE
  47 ID: Up6
     QUANTITY: RADIAL VELOCITY
     Coordinates (X,Y,Z):   -5.000000E-05   -5.000000E-05    6.000000E-02
     TEMPORAL STATISTIC: RUNNING AVERAGE
  48 ID: Up6
     QUANTITY: RADIAL VELOCITY
     Coordinates (X,Y,Z):    1.000000E-02   -5.000000E-05    6.000000E-02
     TEMPORAL STATISTIC: RUNNING AVERAGE
  49 ID: Up6
     QUANTITY: RADIAL VELOCITY
     Coordinates (X,Y,Z):    2.000000E-02   -5.000000E-05    6.000000E-02
     TEMPORAL STATISTIC: RUNNING AVERAGE
  50 ID: Up6
     QUANTITY: RADIAL VELOCITY
     Coordinates (X,Y,Z):    3.000000E-02   -5.000000E-05    6.000000E-02
     TEMPORAL STATISTIC: RUNNING AVERAGE
  51 ID: Up6
     QUANTITY: RADIAL VELOCITY
     Coordinates (X,Y,Z):    4.000000E-02   -5.000000E-05    6.000000E-02
     TEMPORAL STATISTIC: RUNNING AVERAGE
  52 ID: Up6
     QUANTITY: RADIAL VELOCITY
     Coordinates (X,Y,Z):    5.000000E-02   -5.000000E-05    6.000000E-02
     TEMPORAL STATISTIC: RUNNING AVERAGE
  53 ID: Up6
     QUANTITY: RADIAL VELOCITY
     Coordinates (X,Y,Z):    6.000000E-02   -5.000000E-05    6.000000E-02
     TEMPORAL STATISTIC: RUNNING AVERAGE
  54 ID: Up6
     QUANTITY: RADIAL VELOCITY
     Coordinates (X,Y,Z):    7.000000E-02   -5.000000E-05    6.000000E-02
     TEMPORAL STATISTIC: RUNNING AVERAGE
  55 ID: Up6
     QUANTITY: RADIAL VELOCITY
     Coordinates (X,Y,Z):    8.000000E-02   -5.000000E-05    6.000000E-02
     TEMPORAL STATISTIC: RUNNING AVERAGE
  56 ID: Up6
     QUANTITY: RADIAL VELOCITY
     Coordinates (X,Y,Z):    9.000000E-02   -5.000000E-05    6.000000E-02
     TEMPORAL STATISTIC: RUNNING AVERAGE
  57 ID: Up6
     QUANTITY: RADIAL VELOCITY
     Coordinates (X,Y,Z):    1.000000E-01   -5.000000E-05    6.000000E-02
     TEMPORAL STATISTIC: RUNNING AVERAGE
  58 ID: Up6
     QUANTITY: RADIAL VELOCITY
     Coordinates (X,Y,Z):    1.100000E-01   -5.000000E-05    6.000000E-02
     TEMPORAL STATISTIC: RUNNING AVERAGE
  59 ID: Up6
     QUANTITY: RADIAL VELOCITY
     Coordinates (X,Y,Z):    1.200000E-01   -5.000000E-05    6.000000E-02
     TEMPORAL STATISTIC: RUNNING AVERAGE
  60 ID: Up6
     QUANTITY: RADIAL VELOCITY
     Coordinates (X,Y,Z):    1.300000E-01   -5.000000E-05    6.000000E-02
     TEMPORAL STATISTIC: RUNNING AVERAGE
  61 ID: Up6
     QUANTITY: RADIAL VELOCITY
     Coordinates (X,Y,Z):    1.400000E-01   -5.000000E-05    6.000000E-02
     TEMPORAL STATISTIC: RUNNING AVERAGE
  62 ID: Up6
     QUANTITY: RADIAL VELOCITY
     Coordinates (X,Y,Z):    1.499500E-01   -5.000000E-05    6.000000E-02
     TEMPORAL STATISTIC: RUNNING AVERAGE
  63 ID: Up6
     QUANTITY: RADIAL VELOCITY
     Coordinates (X,Y,Z):    1.600000E-01   -5.000000E-05    6.000000E-02
     TEMPORAL STATISTIC: RUNNING AVERAGE
  64 ID: Up8
     QUANTITY: RADIAL VELOCITY
     Coordinates (X,Y,Z):   -4.000000E-02   -5.000000E-05    8.000000E-02
     TEMPORAL STATISTIC: RUNNING AVERAGE
  65 ID: Up8
     QUANTITY: RADIAL VELOCITY
     Coordinates (X,Y,Z):   -3.000000E-02   -5.000000E-05    8.000000E-02
     TEMPORAL STATISTIC: RUNNING AVERAGE
  66 ID: Up8
     QUANTITY: RADIAL VELOCITY
     Coordinates (X,Y,Z):   -2.000000E-02   -5.000000E-05    8.000000E-02
     TEMPORAL STATISTIC: RUNNING AVERAGE
  67 ID: Up8
     QUANTITY: RADIAL VELOCITY
     Coordinates (X,Y,Z):   -1.000000E-02   -5.000000E-05    8.000000E-02
     TEMPORAL STATISTIC: RUNNING AVERAGE
  68 ID: Up8
     QUANTITY: RADIAL VELOCITY
     Coordinates (X,Y,Z):   -5.000000E-05   -5.000000E-05    8.000000E-02
     TEMPORAL STATISTIC: RUNNING AVERAGE
  69 ID: Up8
     QUANTITY: RADIAL VELOCITY
     Coordinates (X,Y,Z):    1.000000E-02   -5.000000E-05    8.000000E-02
     TEMPORAL STATISTIC: RUNNING AVERAGE
  70 ID: Up8
     QUANTITY: RADIAL VELOCITY
     Coordinates (X,Y,Z):    2.000000E-02   -5.000000E-05    8.000000E-02
     TEMPORAL STATISTIC: RUNNING AVERAGE
  71 ID: Up8
     QUANTITY: RADIAL VELOCITY
     Coordinates (X,Y,Z):    3.000000E-02   -5.000000E-05    8.000000E-02
     TEMPORAL STATISTIC: RUNNING AVERAGE
  72 ID: Up8
     QUANTITY: RADIAL VELOCITY
     Coordinates (X,Y,Z):    4.000000E-02   -5.000000E-05    8.000000E-02
     TEMPORAL STATISTIC: RUNNING AVERAGE
  73 ID: Up8
     QUANTITY: RADIAL VELOCITY
     Coordinates (X,Y,Z):    5.000000E-02   -5.000000E-05    8.000000E-02
     TEMPORAL STATISTIC: RUNNING AVERAGE
  74 ID: Up8
     QUANTITY: RADIAL VELOCITY
     Coordinates (X,Y,Z):    6.000000E-02   -5.000000E-05    8.000000E-02
     TEMPORAL STATISTIC: RUNNING AVERAGE
  75 ID: Up8
     QUANTITY: RADIAL VELOCITY
     Coordinates (X,Y,Z):    7.000000E-02   -5.000000E-05    8.000000E-02
     TEMPORAL STATISTIC: RUNNING AVERAGE
  76 ID: Up8
     QUANTITY: RADIAL VELOCITY
     Coordinates (X,Y,Z):    8.000000E-02   -5.000000E-05    8.000000E-02
     TEMPORAL STATISTIC: RUNNING AVERAGE
  77 ID: Up8
     QUANTITY: RADIAL VELOCITY
     Coordinates (X,Y,Z):    9.000000E-02   -5.000000E-05    8.000000E-02
     TEMPORAL STATISTIC: RUNNING AVERAGE
  78 ID: Up8
     QUANTITY: RADIAL VELOCITY
     Coordinates (X,Y,Z):    1.000000E-01   -5.000000E-05    8.000000E-02
     TEMPORAL STATISTIC: RUNNING AVERAGE
  79 ID: Up8
     QUANTITY: RADIAL VELOCITY
     Coordinates (X,Y,Z):    1.100000E-01   -5.000000E-05    8.000000E-02
     TEMPORAL STATISTIC: RUNNING AVERAGE
  80 ID: Up8
     QUANTITY: RADIAL VELOCITY
     Coordinates (X,Y,Z):    1.200000E-01   -5.000000E-05    8.000000E-02
     TEMPORAL STATISTIC: RUNNING AVERAGE
  81 ID: Up8
     QUANTITY: RADIAL VELOCITY
     Coordinates (X,Y,Z):    1.300000E-01   -5.000000E-05    8.000000E-02
     TEMPORAL STATISTIC: RUNNING AVERAGE
  82 ID: Up8
     QUANTITY: RADIAL VELOCITY
     Coordinates (X,Y,Z):    1.400000E-01   -5.000000E-05    8.000000E-02
     TEMPORAL STATISTIC: RUNNING AVERAGE
  83 ID: Up8
     QUANTITY: RADIAL VELOCITY
     Coordinates (X,Y,Z):    1.499500E-01   -5.000000E-05    8.000000E-02
     TEMPORAL STATISTIC: RUNNING AVERAGE
  84 ID: Up8
     QUANTITY: RADIAL VELOCITY
     Coordinates (X,Y,Z):    1.600000E-01   -5.000000E-05    8.000000E-02
     TEMPORAL STATISTIC: RUNNING AVERAGE
  85 ID: Up10
     QUANTITY: RADIAL VELOCITY
     Coordinates (X,Y,Z):   -4.000000E-02   -5.000000E-05    1.000000E-01
     TEMPORAL STATISTIC: RUNNING AVERAGE
  86 ID: Up10
     QUANTITY: RADIAL VELOCITY
     Coordinates (X,Y,Z):   -3.000000E-02   -5.000000E-05    1.000000E-01
     TEMPORAL STATISTIC: RUNNING AVERAGE
  87 ID: Up10
     QUANTITY: RADIAL VELOCITY
     Coordinates (X,Y,Z):   -2.000000E-02   -5.000000E-05    1.000000E-01
     TEMPORAL STATISTIC: RUNNING AVERAGE
  88 ID: Up10
     QUANTITY: RADIAL VELOCITY
     Coordinates (X,Y,Z):   -1.000000E-02   -5.000000E-05    1.000000E-01
     TEMPORAL STATISTIC: RUNNING AVERAGE
  89 ID: Up10
     QUANTITY: RADIAL VELOCITY
     Coordinates (X,Y,Z):   -5.000000E-05   -5.000000E-05    1.000000E-01
     TEMPORAL STATISTIC: RUNNING AVERAGE
  90 ID: Up10
     QUANTITY: RADIAL VELOCITY
     Coordinates (X,Y,Z):    1.000000E-02   -5.000000E-05    1.000000E-01
     TEMPORAL STATISTIC: RUNNING AVERAGE
  91 ID: Up10
     QUANTITY: RADIAL VELOCITY
     Coordinates (X,Y,Z):    2.000000E-02   -5.000000E-05    1.000000E-01
     TEMPORAL STATISTIC: RUNNING AVERAGE
  92 ID: Up10
     QUANTITY: RADIAL VELOCITY
     Coordinates (X,Y,Z):    3.000000E-02   -5.000000E-05    1.000000E-01
     TEMPORAL STATISTIC: RUNNING AVERAGE
  93 ID: Up10
     QUANTITY: RADIAL VELOCITY
     Coordinates (X,Y,Z):    4.000000E-02   -5.000000E-05    1.000000E-01
     TEMPORAL STATISTIC: RUNNING AVERAGE
  94 ID: Up10
     QUANTITY: RADIAL VELOCITY
     Coordinates (X,Y,Z):    5.000000E-02   -5.000000E-05    1.000000E-01
     TEMPORAL STATISTIC: RUNNING AVERAGE
  95 ID: Up10
     QUANTITY: RADIAL VELOCITY
     Coordinates (X,Y,Z):    6.000000E-02   -5.000000E-05    1.000000E-01
     TEMPORAL STATISTIC: RUNNING AVERAGE
  96 ID: Up10
     QUANTITY: RADIAL VELOCITY
     Coordinates (X,Y,Z):    7.000000E-02   -5.000000E-05    1.000000E-01
     TEMPORAL STATISTIC: RUNNING AVERAGE
  97 ID: Up10
     QUANTITY: RADIAL VELOCITY
     Coordinates (X,Y,Z):    8.000000E-02   -5.000000E-05    1.000000E-01
     TEMPORAL STATISTIC: RUNNING AVERAGE
  98 ID: Up10
     QUANTITY: RADIAL VELOCITY
     Coordinates (X,Y,Z):    9.000000E-02   -5.000000E-05    1.000000E-01
     TEMPORAL STATISTIC: RUNNING AVERAGE
  99 ID: Up10
     QUANTITY: RADIAL VELOCITY
     Coordinates (X,Y,Z):    1.000000E-01   -5.000000E-05    1.000000E-01
     TEMPORAL STATISTIC: RUNNING AVERAGE
 100 ID: Up10
     QUANTITY: RADIAL VELOCITY
     Coordinates (X,Y,Z):    1.100000E-01   -5.000000E-05    1.000000E-01
     TEMPORAL STATISTIC: RUNNING AVERAGE
 101 ID: Up10
     QUANTITY: RADIAL VELOCITY
     Coordinates (X,Y,Z):    1.200000E-01   -5.000000E-05    1.000000E-01
     TEMPORAL STATISTIC: RUNNING AVERAGE
 102 ID: Up10
     QUANTITY: RADIAL VELOCITY
     Coordinates (X,Y,Z):    1.300000E-01   -5.000000E-05    1.000000E-01
     TEMPORAL STATISTIC: RUNNING AVERAGE
 103 ID: Up10
     QUANTITY: RADIAL VELOCITY
     Coordinates (X,Y,Z):    1.400000E-01   -5.000000E-05    1.000000E-01
     TEMPORAL STATISTIC: RUNNING AVERAGE
 104 ID: Up10
     QUANTITY: RADIAL VELOCITY
     Coordinates (X,Y,Z):    1.499500E-01   -5.000000E-05    1.000000E-01
     TEMPORAL STATISTIC: RUNNING AVERAGE
 105 ID: Up10
     QUANTITY: RADIAL VELOCITY
     Coordinates (X,Y,Z):    1.600000E-01   -5.000000E-05    1.000000E-01
     TEMPORAL STATISTIC: RUNNING AVERAGE
 106 ID: Up12
     QUANTITY: RADIAL VELOCITY
     Coordinates (X,Y,Z):   -4.000000E-02   -5.000000E-05    1.200000E-01
     TEMPORAL STATISTIC: RUNNING AVERAGE
 107 ID: Up12
     QUANTITY: RADIAL VELOCITY
     Coordinates (X,Y,Z):   -3.000000E-02   -5.000000E-05    1.200000E-01
     TEMPORAL STATISTIC: RUNNING AVERAGE
 108 ID: Up12
     QUANTITY: RADIAL VELOCITY
     Coordinates (X,Y,Z):   -2.000000E-02   -5.000000E-05    1.200000E-01
     TEMPORAL STATISTIC: RUNNING AVERAGE
 109 ID: Up12
     QUANTITY: RADIAL VELOCITY
     Coordinates (X,Y,Z):   -1.000000E-02   -5.000000E-05    1.200000E-01
     TEMPORAL STATISTIC: RUNNING AVERAGE
 110 ID: Up12
     QUANTITY: RADIAL VELOCITY
     Coordinates (X,Y,Z):   -5.000000E-05   -5.000000E-05    1.200000E-01
     TEMPORAL STATISTIC: RUNNING AVERAGE
 111 ID: Up12
     QUANTITY: RADIAL VELOCITY
     Coordinates (X,Y,Z):    1.000000E-02   -5.000000E-05    1.200000E-01
     TEMPORAL STATISTIC: RUNNING AVERAGE
 112 ID: Up12
     QUANTITY: RADIAL VELOCITY
     Coordinates (X,Y,Z):    2.000000E-02   -5.000000E-05    1.200000E-01
     TEMPORAL STATISTIC: RUNNING AVERAGE
 113 ID: Up12
     QUANTITY: RADIAL VELOCITY
     Coordinates (X,Y,Z):    3.000000E-02   -5.000000E-05    1.200000E-01
     TEMPORAL STATISTIC: RUNNING AVERAGE
 114 ID: Up12
     QUANTITY: RADIAL VELOCITY
     Coordinates (X,Y,Z):    4.000000E-02   -5.000000E-05    1.200000E-01
     TEMPORAL STATISTIC: RUNNING AVERAGE
 115 ID: Up12
     QUANTITY: RADIAL VELOCITY
     Coordinates (X,Y,Z):    5.000000E-02   -5.000000E-05    1.200000E-01
     TEMPORAL STATISTIC: RUNNING AVERAGE
 116 ID: Up12
     QUANTITY: RADIAL VELOCITY
     Coordinates (X,Y,Z):    6.000000E-02   -5.000000E-05    1.200000E-01
     TEMPORAL STATISTIC: RUNNING AVERAGE
 117 ID: Up12
     QUANTITY: RADIAL VELOCITY
     Coordinates (X,Y,Z):    7.000000E-02   -5.000000E-05    1.200000E-01
     TEMPORAL STATISTIC: RUNNING AVERAGE
 118 ID: Up12
     QUANTITY: RADIAL VELOCITY
     Coordinates (X,Y,Z):    8.000000E-02   -5.000000E-05    1.200000E-01
     TEMPORAL STATISTIC: RUNNING AVERAGE
 119 ID: Up12
     QUANTITY: RADIAL VELOCITY
     Coordinates (X,Y,Z):    9.000000E-02   -5.000000E-05    1.200000E-01
     TEMPORAL STATISTIC: RUNNING AVERAGE
 120 ID: Up12
     QUANTITY: RADIAL VELOCITY
     Coordinates (X,Y,Z):    1.000000E-01   -5.000000E-05    1.200000E-01
     TEMPORAL STATISTIC: RUNNING AVERAGE
 121 ID: Up12
     QUANTITY: RADIAL VELOCITY
     Coordinates (X,Y,Z):    1.100000E-01   -5.000000E-05    1.200000E-01
     TEMPORAL STATISTIC: RUNNING AVERAGE
 122 ID: Up12
     QUANTITY: RADIAL VELOCITY
     Coordinates (X,Y,Z):    1.200000E-01   -5.000000E-05    1.200000E-01
     TEMPORAL STATISTIC: RUNNING AVERAGE
 123 ID: Up12
     QUANTITY: RADIAL VELOCITY
     Coordinates (X,Y,Z):    1.300000E-01   -5.000000E-05    1.200000E-01
     TEMPORAL STATISTIC: RUNNING AVERAGE
 124 ID: Up12
     QUANTITY: RADIAL VELOCITY
     Coordinates (X,Y,Z):    1.400000E-01   -5.000000E-05    1.200000E-01
     TEMPORAL STATISTIC: RUNNING AVERAGE
 125 ID: Up12
     QUANTITY: RADIAL VELOCITY
     Coordinates (X,Y,Z):    1.499500E-01   -5.000000E-05    1.200000E-01
     TEMPORAL STATISTIC: RUNNING AVERAGE
 126 ID: Up12
     QUANTITY: RADIAL VELOCITY
     Coordinates (X,Y,Z):    1.600000E-01   -5.000000E-05    1.200000E-01
     TEMPORAL STATISTIC: RUNNING AVERAGE
 127 ID: Up14
     QUANTITY: RADIAL VELOCITY
     Coordinates (X,Y,Z):   -4.000000E-02   -5.000000E-05    1.400000E-01
     TEMPORAL STATISTIC: RUNNING AVERAGE
 128 ID: Up14
     QUANTITY: RADIAL VELOCITY
     Coordinates (X,Y,Z):   -3.000000E-02   -5.000000E-05    1.400000E-01
     TEMPORAL STATISTIC: RUNNING AVERAGE
 129 ID: Up14
     QUANTITY: RADIAL VELOCITY
     Coordinates (X,Y,Z):   -2.000000E-02   -5.000000E-05    1.400000E-01
     TEMPORAL STATISTIC: RUNNING AVERAGE
 130 ID: Up14
     QUANTITY: RADIAL VELOCITY
     Coordinates (X,Y,Z):   -1.000000E-02   -5.000000E-05    1.400000E-01
     TEMPORAL STATISTIC: RUNNING AVERAGE
 131 ID: Up14
     QUANTITY: RADIAL VELOCITY
     Coordinates (X,Y,Z):   -5.000000E-05   -5.000000E-05    1.400000E-01
     TEMPORAL STATISTIC: RUNNING AVERAGE
 132 ID: Up14
     QUANTITY: RADIAL VELOCITY
     Coordinates (X,Y,Z):    1.000000E-02   -5.000000E-05    1.400000E-01
     TEMPORAL STATISTIC: RUNNING AVERAGE
 133 ID: Up14
     QUANTITY: RADIAL VELOCITY
     Coordinates (X,Y,Z):    2.000000E-02   -5.000000E-05    1.400000E-01
     TEMPORAL STATISTIC: RUNNING AVERAGE
 134 ID: Up14
     QUANTITY: RADIAL VELOCITY
     Coordinates (X,Y,Z):    3.000000E-02   -5.000000E-05    1.400000E-01
     TEMPORAL STATISTIC: RUNNING AVERAGE
 135 ID: Up14
     QUANTITY: RADIAL VELOCITY
     Coordinates (X,Y,Z):    4.000000E-02   -5.000000E-05    1.400000E-01
     TEMPORAL STATISTIC: RUNNING AVERAGE
 136 ID: Up14
     QUANTITY: RADIAL VELOCITY
     Coordinates (X,Y,Z):    5.000000E-02   -5.000000E-05    1.400000E-01
     TEMPORAL STATISTIC: RUNNING AVERAGE
 137 ID: Up14
     QUANTITY: RADIAL VELOCITY
     Coordinates (X,Y,Z):    6.000000E-02   -5.000000E-05    1.400000E-01
     TEMPORAL STATISTIC: RUNNING AVERAGE
 138 ID: Up14
     QUANTITY: RADIAL VELOCITY
     Coordinates (X,Y,Z):    7.000000E-02   -5.000000E-05    1.400000E-01
     TEMPORAL STATISTIC: RUNNING AVERAGE
 139 ID: Up14
     QUANTITY: RADIAL VELOCITY
     Coordinates (X,Y,Z):    8.000000E-02   -5.000000E-05    1.400000E-01
     TEMPORAL STATISTIC: RUNNING AVERAGE
 140 ID: Up14
     QUANTITY: RADIAL VELOCITY
     Coordinates (X,Y,Z):    9.000000E-02   -5.000000E-05    1.400000E-01
     TEMPORAL STATISTIC: RUNNING AVERAGE
 141 ID: Up14
     QUANTITY: RADIAL VELOCITY
     Coordinates (X,Y,Z):    1.000000E-01   -5.000000E-05    1.400000E-01
     TEMPORAL STATISTIC: RUNNING AVERAGE
 142 ID: Up14
     QUANTITY: RADIAL VELOCITY
     Coordinates (X,Y,Z):    1.100000E-01   -5.000000E-05    1.400000E-01
     TEMPORAL STATISTIC: RUNNING AVERAGE
 143 ID: Up14
     QUANTITY: RADIAL VELOCITY
     Coordinates (X,Y,Z):    1.200000E-01   -5.000000E-05    1.400000E-01
     TEMPORAL STATISTIC: RUNNING AVERAGE
 144 ID: Up14
     QUANTITY: RADIAL VELOCITY
     Coordinates (X,Y,Z):    1.300000E-01   -5.000000E-05    1.400000E-01
     TEMPORAL STATISTIC: RUNNING AVERAGE
 145 ID: Up14
     QUANTITY: RADIAL VELOCITY
     Coordinates (X,Y,Z):    1.400000E-01   -5.000000E-05    1.400000E-01
     TEMPORAL STATISTIC: RUNNING AVERAGE
 146 ID: Up14
     QUANTITY: RADIAL VELOCITY
     Coordinates (X,Y,Z):    1.499500E-01   -5.000000E-05    1.400000E-01
     TEMPORAL STATISTIC: RUNNING AVERAGE
 147 ID: Up14
     QUANTITY: RADIAL VELOCITY
     Coordinates (X,Y,Z):    1.600000E-01   -5.000000E-05    1.400000E-01
     TEMPORAL STATISTIC: RUNNING AVERAGE
 148 ID: Up16
     QUANTITY: RADIAL VELOCITY
     Coordinates (X,Y,Z):   -4.000000E-02   -5.000000E-05    1.600000E-01
     TEMPORAL STATISTIC: RUNNING AVERAGE
 149 ID: Up16
     QUANTITY: RADIAL VELOCITY
     Coordinates (X,Y,Z):   -3.000000E-02   -5.000000E-05    1.600000E-01
     TEMPORAL STATISTIC: RUNNING AVERAGE
 150 ID: Up16
     QUANTITY: RADIAL VELOCITY
     Coordinates (X,Y,Z):   -2.000000E-02   -5.000000E-05    1.600000E-01
     TEMPORAL STATISTIC: RUNNING AVERAGE
 151 ID: Up16
     QUANTITY: RADIAL VELOCITY
     Coordinates (X,Y,Z):   -1.000000E-02   -5.000000E-05    1.600000E-01
     TEMPORAL STATISTIC: RUNNING AVERAGE
 152 ID: Up16
     QUANTITY: RADIAL VELOCITY
     Coordinates (X,Y,Z):   -5.000000E-05   -5.000000E-05    1.600000E-01
     TEMPORAL STATISTIC: RUNNING AVERAGE
 153 ID: Up16
     QUANTITY: RADIAL VELOCITY
     Coordinates (X,Y,Z):    1.000000E-02   -5.000000E-05    1.600000E-01
     TEMPORAL STATISTIC: RUNNING AVERAGE
 154 ID: Up16
     QUANTITY: RADIAL VELOCITY
     Coordinates (X,Y,Z):    2.000000E-02   -5.000000E-05    1.600000E-01
     TEMPORAL STATISTIC: RUNNING AVERAGE
 155 ID: Up16
     QUANTITY: RADIAL VELOCITY
     Coordinates (X,Y,Z):    3.000000E-02   -5.000000E-05    1.600000E-01
     TEMPORAL STATISTIC: RUNNING AVERAGE
 156 ID: Up16
     QUANTITY: RADIAL VELOCITY
     Coordinates (X,Y,Z):    4.000000E-02   -5.000000E-05    1.600000E-01
     TEMPORAL STATISTIC: RUNNING AVERAGE
 157 ID: Up16
     QUANTITY: RADIAL VELOCITY
     Coordinates (X,Y,Z):    5.000000E-02   -5.000000E-05    1.600000E-01
     TEMPORAL STATISTIC: RUNNING AVERAGE
 158 ID: Up16
     QUANTITY: RADIAL VELOCITY
     Coordinates (X,Y,Z):    6.000000E-02   -5.000000E-05    1.600000E-01
     TEMPORAL STATISTIC: RUNNING AVERAGE
 159 ID: Up16
     QUANTITY: RADIAL VELOCITY
     Coordinates (X,Y,Z):    7.000000E-02   -5.000000E-05    1.600000E-01
     TEMPORAL STATISTIC: RUNNING AVERAGE
 160 ID: Up16
     QUANTITY: RADIAL VELOCITY
     Coordinates (X,Y,Z):    8.000000E-02   -5.000000E-05    1.600000E-01
     TEMPORAL STATISTIC: RUNNING AVERAGE
 161 ID: Up16
     QUANTITY: RADIAL VELOCITY
     Coordinates (X,Y,Z):    9.000000E-02   -5.000000E-05    1.600000E-01
     TEMPORAL STATISTIC: RUNNING AVERAGE
 162 ID: Up16
     QUANTITY: RADIAL VELOCITY
     Coordinates (X,Y,Z):    1.000000E-01   -5.000000E-05    1.600000E-01
     TEMPORAL STATISTIC: RUNNING AVERAGE
 163 ID: Up16
     QUANTITY: RADIAL VELOCITY
     Coordinates (X,Y,Z):    1.100000E-01   -5.000000E-05    1.600000E-01
     TEMPORAL STATISTIC: RUNNING AVERAGE
 164 ID: Up16
     QUANTITY: RADIAL VELOCITY
     Coordinates (X,Y,Z):    1.200000E-01   -5.000000E-05    1.600000E-01
     TEMPORAL STATISTIC: RUNNING AVERAGE
 165 ID: Up16
     QUANTITY: RADIAL VELOCITY
     Coordinates (X,Y,Z):    1.300000E-01   -5.000000E-05    1.600000E-01
     TEMPORAL STATISTIC: RUNNING AVERAGE
 166 ID: Up16
     QUANTITY: RADIAL VELOCITY
     Coordinates (X,Y,Z):    1.400000E-01   -5.000000E-05    1.600000E-01
     TEMPORAL STATISTIC: RUNNING AVERAGE
 167 ID: Up16
     QUANTITY: RADIAL VELOCITY
     Coordinates (X,Y,Z):    1.499500E-01   -5.000000E-05    1.600000E-01
     TEMPORAL STATISTIC: RUNNING AVERAGE
 168 ID: Up16
     QUANTITY: RADIAL VELOCITY
     Coordinates (X,Y,Z):    1.600000E-01   -5.000000E-05    1.600000E-01
     TEMPORAL STATISTIC: RUNNING AVERAGE
 169 ID: Up18
     QUANTITY: RADIAL VELOCITY
     Coordinates (X,Y,Z):   -4.000000E-02   -5.000000E-05    1.800000E-01
     TEMPORAL STATISTIC: RUNNING AVERAGE
 170 ID: Up18
     QUANTITY: RADIAL VELOCITY
     Coordinates (X,Y,Z):   -3.000000E-02   -5.000000E-05    1.800000E-01
     TEMPORAL STATISTIC: RUNNING AVERAGE
 171 ID: Up18
     QUANTITY: RADIAL VELOCITY
     Coordinates (X,Y,Z):   -2.000000E-02   -5.000000E-05    1.800000E-01
     TEMPORAL STATISTIC: RUNNING AVERAGE
 172 ID: Up18
     QUANTITY: RADIAL VELOCITY
     Coordinates (X,Y,Z):   -1.000000E-02   -5.000000E-05    1.800000E-01
     TEMPORAL STATISTIC: RUNNING AVERAGE
 173 ID: Up18
     QUANTITY: RADIAL VELOCITY
     Coordinates (X,Y,Z):   -5.000000E-05   -5.000000E-05    1.800000E-01
     TEMPORAL STATISTIC: RUNNING AVERAGE
 174 ID: Up18
     QUANTITY: RADIAL VELOCITY
     Coordinates (X,Y,Z):    1.000000E-02   -5.000000E-05    1.800000E-01
     TEMPORAL STATISTIC: RUNNING AVERAGE
 175 ID: Up18
     QUANTITY: RADIAL VELOCITY
     Coordinates (X,Y,Z):    2.000000E-02   -5.000000E-05    1.800000E-01
     TEMPORAL STATISTIC: RUNNING AVERAGE
 176 ID: Up18
     QUANTITY: RADIAL VELOCITY
     Coordinates (X,Y,Z):    3.000000E-02   -5.000000E-05    1.800000E-01
     TEMPORAL STATISTIC: RUNNING AVERAGE
 177 ID: Up18
     QUANTITY: RADIAL VELOCITY
     Coordinates (X,Y,Z):    4.000000E-02   -5.000000E-05    1.800000E-01
     TEMPORAL STATISTIC: RUNNING AVERAGE
 178 ID: Up18
     QUANTITY: RADIAL VELOCITY
     Coordinates (X,Y,Z):    5.000000E-02   -5.000000E-05    1.800000E-01
     TEMPORAL STATISTIC: RUNNING AVERAGE
 179 ID: Up18
     QUANTITY: RADIAL VELOCITY
     Coordinates (X,Y,Z):    6.000000E-02   -5.000000E-05    1.800000E-01
     TEMPORAL STATISTIC: RUNNING AVERAGE
 180 ID: Up18
     QUANTITY: RADIAL VELOCITY
     Coordinates (X,Y,Z):    7.000000E-02   -5.000000E-05    1.800000E-01
     TEMPORAL STATISTIC: RUNNING AVERAGE
 181 ID: Up18
     QUANTITY: RADIAL VELOCITY
     Coordinates (X,Y,Z):    8.000000E-02   -5.000000E-05    1.800000E-01
     TEMPORAL STATISTIC: RUNNING AVERAGE
 182 ID: Up18
     QUANTITY: RADIAL VELOCITY
     Coordinates (X,Y,Z):    9.000000E-02   -5.000000E-05    1.800000E-01
     TEMPORAL STATISTIC: RUNNING AVERAGE
 183 ID: Up18
     QUANTITY: RADIAL VELOCITY
     Coordinates (X,Y,Z):    1.000000E-01   -5.000000E-05    1.800000E-01
     TEMPORAL STATISTIC: RUNNING AVERAGE
 184 ID: Up18
     QUANTITY: RADIAL VELOCITY
     Coordinates (X,Y,Z):    1.100000E-01   -5.000000E-05    1.800000E-01
     TEMPORAL STATISTIC: RUNNING AVERAGE
 185 ID: Up18
     QUANTITY: RADIAL VELOCITY
     Coordinates (X,Y,Z):    1.200000E-01   -5.000000E-05    1.800000E-01
     TEMPORAL STATISTIC: RUNNING AVERAGE
 186 ID: Up18
     QUANTITY: RADIAL VELOCITY
     Coordinates (X,Y,Z):    1.300000E-01   -5.000000E-05    1.800000E-01
     TEMPORAL STATISTIC: RUNNING AVERAGE
 187 ID: Up18
     QUANTITY: RADIAL VELOCITY
     Coordinates (X,Y,Z):    1.400000E-01   -5.000000E-05    1.800000E-01
     TEMPORAL STATISTIC: RUNNING AVERAGE
 188 ID: Up18
     QUANTITY: RADIAL VELOCITY
     Coordinates (X,Y,Z):    1.499500E-01   -5.000000E-05    1.800000E-01
     TEMPORAL STATISTIC: RUNNING AVERAGE
 189 ID: Up18
     QUANTITY: RADIAL VELOCITY
     Coordinates (X,Y,Z):    1.600000E-01   -5.000000E-05    1.800000E-01
     TEMPORAL STATISTIC: RUNNING AVERAGE
 190 ID: Up20
     QUANTITY: RADIAL VELOCITY
     Coordinates (X,Y,Z):   -4.000000E-02   -5.000000E-05    2.000000E-01
     TEMPORAL STATISTIC: RUNNING AVERAGE
 191 ID: Up20
     QUANTITY: RADIAL VELOCITY
     Coordinates (X,Y,Z):   -3.000000E-02   -5.000000E-05    2.000000E-01
     TEMPORAL STATISTIC: RUNNING AVERAGE
 192 ID: Up20
     QUANTITY: RADIAL VELOCITY
     Coordinates (X,Y,Z):   -2.000000E-02   -5.000000E-05    2.000000E-01
     TEMPORAL STATISTIC: RUNNING AVERAGE
 193 ID: Up20
     QUANTITY: RADIAL VELOCITY
     Coordinates (X,Y,Z):   -1.000000E-02   -5.000000E-05    2.000000E-01
     TEMPORAL STATISTIC: RUNNING AVERAGE
 194 ID: Up20
     QUANTITY: RADIAL VELOCITY
     Coordinates (X,Y,Z):   -5.000000E-05   -5.000000E-05    2.000000E-01
     TEMPORAL STATISTIC: RUNNING AVERAGE
 195 ID: Up20
     QUANTITY: RADIAL VELOCITY
     Coordinates (X,Y,Z):    1.000000E-02   -5.000000E-05    2.000000E-01
     TEMPORAL STATISTIC: RUNNING AVERAGE
 196 ID: Up20
     QUANTITY: RADIAL VELOCITY
     Coordinates (X,Y,Z):    2.000000E-02   -5.000000E-05    2.000000E-01
     TEMPORAL STATISTIC: RUNNING AVERAGE
 197 ID: Up20
     QUANTITY: RADIAL VELOCITY
     Coordinates (X,Y,Z):    3.000000E-02   -5.000000E-05    2.000000E-01
     TEMPORAL STATISTIC: RUNNING AVERAGE
 198 ID: Up20
     QUANTITY: RADIAL VELOCITY
     Coordinates (X,Y,Z):    4.000000E-02   -5.000000E-05    2.000000E-01
     TEMPORAL STATISTIC: RUNNING AVERAGE
 199 ID: Up20
     QUANTITY: RADIAL VELOCITY
     Coordinates (X,Y,Z):    5.000000E-02   -5.000000E-05    2.000000E-01
     TEMPORAL STATISTIC: RUNNING AVERAGE
 200 ID: Up20
     QUANTITY: RADIAL VELOCITY
     Coordinates (X,Y,Z):    6.000000E-02   -5.000000E-05    2.000000E-01
     TEMPORAL STATISTIC: RUNNING AVERAGE
 201 ID: Up20
     QUANTITY: RADIAL VELOCITY
     Coordinates (X,Y,Z):    7.000000E-02   -5.000000E-05    2.000000E-01
     TEMPORAL STATISTIC: RUNNING AVERAGE
 202 ID: Up20
     QUANTITY: RADIAL VELOCITY
     Coordinates (X,Y,Z):    8.000000E-02   -5.000000E-05    2.000000E-01
     TEMPORAL STATISTIC: RUNNING AVERAGE
 203 ID: Up20
     QUANTITY: RADIAL VELOCITY
     Coordinates (X,Y,Z):    9.000000E-02   -5.000000E-05    2.000000E-01
     TEMPORAL STATISTIC: RUNNING AVERAGE
 204 ID: Up20
     QUANTITY: RADIAL VELOCITY
     Coordinates (X,Y,Z):    1.000000E-01   -5.000000E-05    2.000000E-01
     TEMPORAL STATISTIC: RUNNING AVERAGE
 205 ID: Up20
     QUANTITY: RADIAL VELOCITY
     Coordinates (X,Y,Z):    1.100000E-01   -5.000000E-05    2.000000E-01
     TEMPORAL STATISTIC: RUNNING AVERAGE
 206 ID: Up20
     QUANTITY: RADIAL VELOCITY
     Coordinates (X,Y,Z):    1.200000E-01   -5.000000E-05    2.000000E-01
     TEMPORAL STATISTIC: RUNNING AVERAGE
 207 ID: Up20
     QUANTITY: RADIAL VELOCITY
     Coordinates (X,Y,Z):    1.300000E-01   -5.000000E-05    2.000000E-01
     TEMPORAL STATISTIC: RUNNING AVERAGE
 208 ID: Up20
     QUANTITY: RADIAL VELOCITY
     Coordinates (X,Y,Z):    1.400000E-01   -5.000000E-05    2.000000E-01
     TEMPORAL STATISTIC: RUNNING AVERAGE
 209 ID: Up20
     QUANTITY: RADIAL VELOCITY
     Coordinates (X,Y,Z):    1.499500E-01   -5.000000E-05    2.000000E-01
     TEMPORAL STATISTIC: RUNNING AVERAGE
 210 ID: Up20
     QUANTITY: RADIAL VELOCITY
     Coordinates (X,Y,Z):    1.600000E-01   -5.000000E-05    2.000000E-01
     TEMPORAL STATISTIC: RUNNING AVERAGE
 211 ID: Up30
     QUANTITY: RADIAL VELOCITY
     Coordinates (X,Y,Z):   -4.000000E-02   -5.000000E-05    3.000000E-01
     TEMPORAL STATISTIC: RUNNING AVERAGE
 212 ID: Up30
     QUANTITY: RADIAL VELOCITY
     Coordinates (X,Y,Z):   -3.000000E-02   -5.000000E-05    3.000000E-01
     TEMPORAL STATISTIC: RUNNING AVERAGE
 213 ID: Up30
     QUANTITY: RADIAL VELOCITY
     Coordinates (X,Y,Z):   -2.000000E-02   -5.000000E-05    3.000000E-01
     TEMPORAL STATISTIC: RUNNING AVERAGE
 214 ID: Up30
     QUANTITY: RADIAL VELOCITY
     Coordinates (X,Y,Z):   -1.000000E-02   -5.000000E-05    3.000000E-01
     TEMPORAL STATISTIC: RUNNING AVERAGE
 215 ID: Up30
     QUANTITY: RADIAL VELOCITY
     Coordinates (X,Y,Z):   -5.000000E-05   -5.000000E-05    3.000000E-01
     TEMPORAL STATISTIC: RUNNING AVERAGE
 216 ID: Up30
     QUANTITY: RADIAL VELOCITY
     Coordinates (X,Y,Z):    1.000000E-02   -5.000000E-05    3.000000E-01
     TEMPORAL STATISTIC: RUNNING AVERAGE
 217 ID: Up30
     QUANTITY: RADIAL VELOCITY
     Coordinates (X,Y,Z):    2.000000E-02   -5.000000E-05    3.000000E-01
     TEMPORAL STATISTIC: RUNNING AVERAGE
 218 ID: Up30
     QUANTITY: RADIAL VELOCITY
     Coordinates (X,Y,Z):    3.000000E-02   -5.000000E-05    3.000000E-01
     TEMPORAL STATISTIC: RUNNING AVERAGE
 219 ID: Up30
     QUANTITY: RADIAL VELOCITY
     Coordinates (X,Y,Z):    4.000000E-02   -5.000000E-05    3.000000E-01
     TEMPORAL STATISTIC: RUNNING AVERAGE
 220 ID: Up30
     QUANTITY: RADIAL VELOCITY
     Coordinates (X,Y,Z):    5.000000E-02   -5.000000E-05    3.000000E-01
     TEMPORAL STATISTIC: RUNNING AVERAGE
 221 ID: Up30
     QUANTITY: RADIAL VELOCITY
     Coordinates (X,Y,Z):    6.000000E-02   -5.000000E-05    3.000000E-01
     TEMPORAL STATISTIC: RUNNING AVERAGE
 222 ID: Up30
     QUANTITY: RADIAL VELOCITY
     Coordinates (X,Y,Z):    7.000000E-02   -5.000000E-05    3.000000E-01
     TEMPORAL STATISTIC: RUNNING AVERAGE
 223 ID: Up30
     QUANTITY: RADIAL VELOCITY
     Coordinates (X,Y,Z):    8.000000E-02   -5.000000E-05    3.000000E-01
     TEMPORAL STATISTIC: RUNNING AVERAGE
 224 ID: Up30
     QUANTITY: RADIAL VELOCITY
     Coordinates (X,Y,Z):    9.000000E-02   -5.000000E-05    3.000000E-01
     TEMPORAL STATISTIC: RUNNING AVERAGE
 225 ID: Up30
     QUANTITY: RADIAL VELOCITY
     Coordinates (X,Y,Z):    1.000000E-01   -5.000000E-05    3.000000E-01
     TEMPORAL STATISTIC: RUNNING AVERAGE
 226 ID: Up30
     QUANTITY: RADIAL VELOCITY
     Coordinates (X,Y,Z):    1.100000E-01   -5.000000E-05    3.000000E-01
     TEMPORAL STATISTIC: RUNNING AVERAGE
 227 ID: Up30
     QUANTITY: RADIAL VELOCITY
     Coordinates (X,Y,Z):    1.200000E-01   -5.000000E-05    3.000000E-01
     TEMPORAL STATISTIC: RUNNING AVERAGE
 228 ID: Up30
     QUANTITY: RADIAL VELOCITY
     Coordinates (X,Y,Z):    1.300000E-01   -5.000000E-05    3.000000E-01
     TEMPORAL STATISTIC: RUNNING AVERAGE
 229 ID: Up30
     QUANTITY: RADIAL VELOCITY
     Coordinates (X,Y,Z):    1.400000E-01   -5.000000E-05    3.000000E-01
     TEMPORAL STATISTIC: RUNNING AVERAGE
 230 ID: Up30
     QUANTITY: RADIAL VELOCITY
     Coordinates (X,Y,Z):    1.499500E-01   -5.000000E-05    3.000000E-01
     TEMPORAL STATISTIC: RUNNING AVERAGE
 231 ID: Up30
     QUANTITY: RADIAL VELOCITY
     Coordinates (X,Y,Z):    1.600000E-01   -5.000000E-05    3.000000E-01
     TEMPORAL STATISTIC: RUNNING AVERAGE
 232 ID: Up60
     QUANTITY: RADIAL VELOCITY
     Coordinates (X,Y,Z):   -4.000000E-02   -5.000000E-05    6.000000E-01
     TEMPORAL STATISTIC: RUNNING AVERAGE
 233 ID: Up60
     QUANTITY: RADIAL VELOCITY
     Coordinates (X,Y,Z):   -3.000000E-02   -5.000000E-05    6.000000E-01
     TEMPORAL STATISTIC: RUNNING AVERAGE
 234 ID: Up60
     QUANTITY: RADIAL VELOCITY
     Coordinates (X,Y,Z):   -2.000000E-02   -5.000000E-05    6.000000E-01
     TEMPORAL STATISTIC: RUNNING AVERAGE
 235 ID: Up60
     QUANTITY: RADIAL VELOCITY
     Coordinates (X,Y,Z):   -1.000000E-02   -5.000000E-05    6.000000E-01
     TEMPORAL STATISTIC: RUNNING AVERAGE
 236 ID: Up60
     QUANTITY: RADIAL VELOCITY
     Coordinates (X,Y,Z):   -5.000000E-05   -5.000000E-05    6.000000E-01
     TEMPORAL STATISTIC: RUNNING AVERAGE
 237 ID: Up60
     QUANTITY: RADIAL VELOCITY
     Coordinates (X,Y,Z):    1.000000E-02   -5.000000E-05    6.000000E-01
     TEMPORAL STATISTIC: RUNNING AVERAGE
 238 ID: Up60
     QUANTITY: RADIAL VELOCITY
     Coordinates (X,Y,Z):    2.000000E-02   -5.000000E-05    6.000000E-01
     TEMPORAL STATISTIC: RUNNING AVERAGE
 239 ID: Up60
     QUANTITY: RADIAL VELOCITY
     Coordinates (X,Y,Z):    3.000000E-02   -5.000000E-05    6.000000E-01
     TEMPORAL STATISTIC: RUNNING AVERAGE
 240 ID: Up60
     QUANTITY: RADIAL VELOCITY
     Coordinates (X,Y,Z):    4.000000E-02   -5.000000E-05    6.000000E-01
     TEMPORAL STATISTIC: RUNNING AVERAGE
 241 ID: Up60
     QUANTITY: RADIAL VELOCITY
     Coordinates (X,Y,Z):    5.000000E-02   -5.000000E-05    6.000000E-01
     TEMPORAL STATISTIC: RUNNING AVERAGE
 242 ID: Up60
     QUANTITY: RADIAL VELOCITY
     Coordinates (X,Y,Z):    6.000000E-02   -5.000000E-05    6.000000E-01
     TEMPORAL STATISTIC: RUNNING AVERAGE
 243 ID: Up60
     QUANTITY: RADIAL VELOCITY
     Coordinates (X,Y,Z):    7.000000E-02   -5.000000E-05    6.000000E-01
     TEMPORAL STATISTIC: RUNNING AVERAGE
 244 ID: Up60
     QUANTITY: RADIAL VELOCITY
     Coordinates (X,Y,Z):    8.000000E-02   -5.000000E-05    6.000000E-01
     TEMPORAL STATISTIC: RUNNING AVERAGE
 245 ID: Up60
     QUANTITY: RADIAL VELOCITY
     Coordinates (X,Y,Z):    9.000000E-02   -5.000000E-05    6.000000E-01
     TEMPORAL STATISTIC: RUNNING AVERAGE
 246 ID: Up60
     QUANTITY: RADIAL VELOCITY
     Coordinates (X,Y,Z):    1.000000E-01   -5.000000E-05    6.000000E-01
     TEMPORAL STATISTIC: RUNNING AVERAGE
 247 ID: Up60
     QUANTITY: RADIAL VELOCITY
     Coordinates (X,Y,Z):    1.100000E-01   -5.000000E-05    6.000000E-01
     TEMPORAL STATISTIC: RUNNING AVERAGE
 248 ID: Up60
     QUANTITY: RADIAL VELOCITY
     Coordinates (X,Y,Z):    1.200000E-01   -5.000000E-05    6.000000E-01
     TEMPORAL STATISTIC: RUNNING AVERAGE
 249 ID: Up60
     QUANTITY: RADIAL VELOCITY
     Coordinates (X,Y,Z):    1.300000E-01   -5.000000E-05    6.000000E-01
     TEMPORAL STATISTIC: RUNNING AVERAGE
 250 ID: Up60
     QUANTITY: RADIAL VELOCITY
     Coordinates (X,Y,Z):    1.400000E-01   -5.000000E-05    6.000000E-01
     TEMPORAL STATISTIC: RUNNING AVERAGE
 251 ID: Up60
     QUANTITY: RADIAL VELOCITY
     Coordinates (X,Y,Z):    1.499500E-01   -5.000000E-05    6.000000E-01
     TEMPORAL STATISTIC: RUNNING AVERAGE
 252 ID: Up60
     QUANTITY: RADIAL VELOCITY
     Coordinates (X,Y,Z):    1.600000E-01   -5.000000E-05    6.000000E-01
     TEMPORAL STATISTIC: RUNNING AVERAGE
 253 ID: Wp2
     QUANTITY: W-VELOCITY
     Coordinates (X,Y,Z):   -4.000000E-02   -5.000000E-05    2.000000E-02
     TEMPORAL STATISTIC: RUNNING AVERAGE
 254 ID: Wp2
     QUANTITY: W-VELOCITY
     Coordinates (X,Y,Z):   -3.000000E-02   -5.000000E-05    2.000000E-02
     TEMPORAL STATISTIC: RUNNING AVERAGE
 255 ID: Wp2
     QUANTITY: W-VELOCITY
     Coordinates (X,Y,Z):   -2.000000E-02   -5.000000E-05    2.000000E-02
     TEMPORAL STATISTIC: RUNNING AVERAGE
 256 ID: Wp2
     QUANTITY: W-VELOCITY
     Coordinates (X,Y,Z):   -1.000000E-02   -5.000000E-05    2.000000E-02
     TEMPORAL STATISTIC: RUNNING AVERAGE
 257 ID: Wp2
     QUANTITY: W-VELOCITY
     Coordinates (X,Y,Z):   -5.000000E-05   -5.000000E-05    2.000000E-02
     TEMPORAL STATISTIC: RUNNING AVERAGE
 258 ID: Wp2
     QUANTITY: W-VELOCITY
     Coordinates (X,Y,Z):    1.000000E-02   -5.000000E-05    2.000000E-02
     TEMPORAL STATISTIC: RUNNING AVERAGE
 259 ID: Wp2
     QUANTITY: W-VELOCITY
     Coordinates (X,Y,Z):    2.000000E-02   -5.000000E-05    2.000000E-02
     TEMPORAL STATISTIC: RUNNING AVERAGE
 260 ID: Wp2
     QUANTITY: W-VELOCITY
     Coordinates (X,Y,Z):    3.000000E-02   -5.000000E-05    2.000000E-02
     TEMPORAL STATISTIC: RUNNING AVERAGE
 261 ID: Wp2
     QUANTITY: W-VELOCITY
     Coordinates (X,Y,Z):    4.000000E-02   -5.000000E-05    2.000000E-02
     TEMPORAL STATISTIC: RUNNING AVERAGE
 262 ID: Wp2
     QUANTITY: W-VELOCITY
     Coordinates (X,Y,Z):    5.000000E-02   -5.000000E-05    2.000000E-02
     TEMPORAL STATISTIC: RUNNING AVERAGE
 263 ID: Wp2
     QUANTITY: W-VELOCITY
     Coordinates (X,Y,Z):    6.000000E-02   -5.000000E-05    2.000000E-02
     TEMPORAL STATISTIC: RUNNING AVERAGE
 264 ID: Wp2
     QUANTITY: W-VELOCITY
     Coordinates (X,Y,Z):    7.000000E-02   -5.000000E-05    2.000000E-02
     TEMPORAL STATISTIC: RUNNING AVERAGE
 265 ID: Wp2
     QUANTITY: W-VELOCITY
     Coordinates (X,Y,Z):    8.000000E-02   -5.000000E-05    2.000000E-02
     TEMPORAL STATISTIC: RUNNING AVERAGE
 266 ID: Wp2
     QUANTITY: W-VELOCITY
     Coordinates (X,Y,Z):    9.000000E-02   -5.000000E-05    2.000000E-02
     TEMPORAL STATISTIC: RUNNING AVERAGE
 267 ID: Wp2
     QUANTITY: W-VELOCITY
     Coordinates (X,Y,Z):    1.000000E-01   -5.000000E-05    2.000000E-02
     TEMPORAL STATISTIC: RUNNING AVERAGE
 268 ID: Wp2
     QUANTITY: W-VELOCITY
     Coordinates (X,Y,Z):    1.100000E-01   -5.000000E-05    2.000000E-02
     TEMPORAL STATISTIC: RUNNING AVERAGE
 269 ID: Wp2
     QUANTITY: W-VELOCITY
     Coordinates (X,Y,Z):    1.200000E-01   -5.000000E-05    2.000000E-02
     TEMPORAL STATISTIC: RUNNING AVERAGE
 270 ID: Wp2
     QUANTITY: W-VELOCITY
     Coordinates (X,Y,Z):    1.300000E-01   -5.000000E-05    2.000000E-02
     TEMPORAL STATISTIC: RUNNING AVERAGE
 271 ID: Wp2
     QUANTITY: W-VELOCITY
     Coordinates (X,Y,Z):    1.400000E-01   -5.000000E-05    2.000000E-02
     TEMPORAL STATISTIC: RUNNING AVERAGE
 272 ID: Wp2
     QUANTITY: W-VELOCITY
     Coordinates (X,Y,Z):    1.499500E-01   -5.000000E-05    2.000000E-02
     TEMPORAL STATISTIC: RUNNING AVERAGE
 273 ID: Wp2
     QUANTITY: W-VELOCITY
     Coordinates (X,Y,Z):    1.600000E-01   -5.000000E-05    2.000000E-02
     TEMPORAL STATISTIC: RUNNING AVERAGE
 274 ID: Wp4
     QUANTITY: W-VELOCITY
     Coordinates (X,Y,Z):   -4.000000E-02   -5.000000E-05    4.000000E-02
     TEMPORAL STATISTIC: RUNNING AVERAGE
 275 ID: Wp4
     QUANTITY: W-VELOCITY
     Coordinates (X,Y,Z):   -3.000000E-02   -5.000000E-05    4.000000E-02
     TEMPORAL STATISTIC: RUNNING AVERAGE
 276 ID: Wp4
     QUANTITY: W-VELOCITY
     Coordinates (X,Y,Z):   -2.000000E-02   -5.000000E-05    4.000000E-02
     TEMPORAL STATISTIC: RUNNING AVERAGE
 277 ID: Wp4
     QUANTITY: W-VELOCITY
     Coordinates (X,Y,Z):   -1.000000E-02   -5.000000E-05    4.000000E-02
     TEMPORAL STATISTIC: RUNNING AVERAGE
 278 ID: Wp4
     QUANTITY: W-VELOCITY
     Coordinates (X,Y,Z):   -5.000000E-05   -5.000000E-05    4.000000E-02
     TEMPORAL STATISTIC: RUNNING AVERAGE
 279 ID: Wp4
     QUANTITY: W-VELOCITY
     Coordinates (X,Y,Z):    1.000000E-02   -5.000000E-05    4.000000E-02
     TEMPORAL STATISTIC: RUNNING AVERAGE
 280 ID: Wp4
     QUANTITY: W-VELOCITY
     Coordinates (X,Y,Z):    2.000000E-02   -5.000000E-05    4.000000E-02
     TEMPORAL STATISTIC: RUNNING AVERAGE
 281 ID: Wp4
     QUANTITY: W-VELOCITY
     Coordinates (X,Y,Z):    3.000000E-02   -5.000000E-05    4.000000E-02
     TEMPORAL STATISTIC: RUNNING AVERAGE
 282 ID: Wp4
     QUANTITY: W-VELOCITY
     Coordinates (X,Y,Z):    4.000000E-02   -5.000000E-05    4.000000E-02
     TEMPORAL STATISTIC: RUNNING AVERAGE
 283 ID: Wp4
     QUANTITY: W-VELOCITY
     Coordinates (X,Y,Z):    5.000000E-02   -5.000000E-05    4.000000E-02
     TEMPORAL STATISTIC: RUNNING AVERAGE
 284 ID: Wp4
     QUANTITY: W-VELOCITY
     Coordinates (X,Y,Z):    6.000000E-02   -5.000000E-05    4.000000E-02
     TEMPORAL STATISTIC: RUNNING AVERAGE
 285 ID: Wp4
     QUANTITY: W-VELOCITY
     Coordinates (X,Y,Z):    7.000000E-02   -5.000000E-05    4.000000E-02
     TEMPORAL STATISTIC: RUNNING AVERAGE
 286 ID: Wp4
     QUANTITY: W-VELOCITY
     Coordinates (X,Y,Z):    8.000000E-02   -5.000000E-05    4.000000E-02
     TEMPORAL STATISTIC: RUNNING AVERAGE
 287 ID: Wp4
     QUANTITY: W-VELOCITY
     Coordinates (X,Y,Z):    9.000000E-02   -5.000000E-05    4.000000E-02
     TEMPORAL STATISTIC: RUNNING AVERAGE
 288 ID: Wp4
     QUANTITY: W-VELOCITY
     Coordinates (X,Y,Z):    1.000000E-01   -5.000000E-05    4.000000E-02
     TEMPORAL STATISTIC: RUNNING AVERAGE
 289 ID: Wp4
     QUANTITY: W-VELOCITY
     Coordinates (X,Y,Z):    1.100000E-01   -5.000000E-05    4.000000E-02
     TEMPORAL STATISTIC: RUNNING AVERAGE
 290 ID: Wp4
     QUANTITY: W-VELOCITY
     Coordinates (X,Y,Z):    1.200000E-01   -5.000000E-05    4.000000E-02
     TEMPORAL STATISTIC: RUNNING AVERAGE
 291 ID: Wp4
     QUANTITY: W-VELOCITY
     Coordinates (X,Y,Z):    1.300000E-01   -5.000000E-05    4.000000E-02
     TEMPORAL STATISTIC: RUNNING AVERAGE
 292 ID: Wp4
     QUANTITY: W-VELOCITY
     Coordinates (X,Y,Z):    1.400000E-01   -5.000000E-05    4.000000E-02
     TEMPORAL STATISTIC: RUNNING AVERAGE
 293 ID: Wp4
     QUANTITY: W-VELOCITY
     Coordinates (X,Y,Z):    1.499500E-01   -5.000000E-05    4.000000E-02
     TEMPORAL STATISTIC: RUNNING AVERAGE
 294 ID: Wp4
     QUANTITY: W-VELOCITY
     Coordinates (X,Y,Z):    1.600000E-01   -5.000000E-05    4.000000E-02
     TEMPORAL STATISTIC: RUNNING AVERAGE
 295 ID: Wp6
     QUANTITY: W-VELOCITY
     Coordinates (X,Y,Z):   -4.000000E-02   -5.000000E-05    6.000000E-02
     TEMPORAL STATISTIC: RUNNING AVERAGE
 296 ID: Wp6
     QUANTITY: W-VELOCITY
     Coordinates (X,Y,Z):   -3.000000E-02   -5.000000E-05    6.000000E-02
     TEMPORAL STATISTIC: RUNNING AVERAGE
 297 ID: Wp6
     QUANTITY: W-VELOCITY
     Coordinates (X,Y,Z):   -2.000000E-02   -5.000000E-05    6.000000E-02
     TEMPORAL STATISTIC: RUNNING AVERAGE
 298 ID: Wp6
     QUANTITY: W-VELOCITY
     Coordinates (X,Y,Z):   -1.000000E-02   -5.000000E-05    6.000000E-02
     TEMPORAL STATISTIC: RUNNING AVERAGE
 299 ID: Wp6
     QUANTITY: W-VELOCITY
     Coordinates (X,Y,Z):   -5.000000E-05   -5.000000E-05    6.000000E-02
     TEMPORAL STATISTIC: RUNNING AVERAGE
 300 ID: Wp6
     QUANTITY: W-VELOCITY
     Coordinates (X,Y,Z):    1.000000E-02   -5.000000E-05    6.000000E-02
     TEMPORAL STATISTIC: RUNNING AVERAGE
 301 ID: Wp6
     QUANTITY: W-VELOCITY
     Coordinates (X,Y,Z):    2.000000E-02   -5.000000E-05    6.000000E-02
     TEMPORAL STATISTIC: RUNNING AVERAGE
 302 ID: Wp6
     QUANTITY: W-VELOCITY
     Coordinates (X,Y,Z):    3.000000E-02   -5.000000E-05    6.000000E-02
     TEMPORAL STATISTIC: RUNNING AVERAGE
 303 ID: Wp6
     QUANTITY: W-VELOCITY
     Coordinates (X,Y,Z):    4.000000E-02   -5.000000E-05    6.000000E-02
     TEMPORAL STATISTIC: RUNNING AVERAGE
 304 ID: Wp6
     QUANTITY: W-VELOCITY
     Coordinates (X,Y,Z):    5.000000E-02   -5.000000E-05    6.000000E-02
     TEMPORAL STATISTIC: RUNNING AVERAGE
 305 ID: Wp6
     QUANTITY: W-VELOCITY
     Coordinates (X,Y,Z):    6.000000E-02   -5.000000E-05    6.000000E-02
     TEMPORAL STATISTIC: RUNNING AVERAGE
 306 ID: Wp6
     QUANTITY: W-VELOCITY
     Coordinates (X,Y,Z):    7.000000E-02   -5.000000E-05    6.000000E-02
     TEMPORAL STATISTIC: RUNNING AVERAGE
 307 ID: Wp6
     QUANTITY: W-VELOCITY
     Coordinates (X,Y,Z):    8.000000E-02   -5.000000E-05    6.000000E-02
     TEMPORAL STATISTIC: RUNNING AVERAGE
 308 ID: Wp6
     QUANTITY: W-VELOCITY
     Coordinates (X,Y,Z):    9.000000E-02   -5.000000E-05    6.000000E-02
     TEMPORAL STATISTIC: RUNNING AVERAGE
 309 ID: Wp6
     QUANTITY: W-VELOCITY
     Coordinates (X,Y,Z):    1.000000E-01   -5.000000E-05    6.000000E-02
     TEMPORAL STATISTIC: RUNNING AVERAGE
 310 ID: Wp6
     QUANTITY: W-VELOCITY
     Coordinates (X,Y,Z):    1.100000E-01   -5.000000E-05    6.000000E-02
     TEMPORAL STATISTIC: RUNNING AVERAGE
 311 ID: Wp6
     QUANTITY: W-VELOCITY
     Coordinates (X,Y,Z):    1.200000E-01   -5.000000E-05    6.000000E-02
     TEMPORAL STATISTIC: RUNNING AVERAGE
 312 ID: Wp6
     QUANTITY: W-VELOCITY
     Coordinates (X,Y,Z):    1.300000E-01   -5.000000E-05    6.000000E-02
     TEMPORAL STATISTIC: RUNNING AVERAGE
 313 ID: Wp6
     QUANTITY: W-VELOCITY
     Coordinates (X,Y,Z):    1.400000E-01   -5.000000E-05    6.000000E-02
     TEMPORAL STATISTIC: RUNNING AVERAGE
 314 ID: Wp6
     QUANTITY: W-VELOCITY
     Coordinates (X,Y,Z):    1.499500E-01   -5.000000E-05    6.000000E-02
     TEMPORAL STATISTIC: RUNNING AVERAGE
 315 ID: Wp6
     QUANTITY: W-VELOCITY
     Coordinates (X,Y,Z):    1.600000E-01   -5.000000E-05    6.000000E-02
     TEMPORAL STATISTIC: RUNNING AVERAGE
 316 ID: Wp8
     QUANTITY: W-VELOCITY
     Coordinates (X,Y,Z):   -4.000000E-02   -5.000000E-05    8.000000E-02
     TEMPORAL STATISTIC: RUNNING AVERAGE
 317 ID: Wp8
     QUANTITY: W-VELOCITY
     Coordinates (X,Y,Z):   -3.000000E-02   -5.000000E-05    8.000000E-02
     TEMPORAL STATISTIC: RUNNING AVERAGE
 318 ID: Wp8
     QUANTITY: W-VELOCITY
     Coordinates (X,Y,Z):   -2.000000E-02   -5.000000E-05    8.000000E-02
     TEMPORAL STATISTIC: RUNNING AVERAGE
 319 ID: Wp8
     QUANTITY: W-VELOCITY
     Coordinates (X,Y,Z):   -1.000000E-02   -5.000000E-05    8.000000E-02
     TEMPORAL STATISTIC: RUNNING AVERAGE
 320 ID: Wp8
     QUANTITY: W-VELOCITY
     Coordinates (X,Y,Z):   -5.000000E-05   -5.000000E-05    8.000000E-02
     TEMPORAL STATISTIC: RUNNING AVERAGE
 321 ID: Wp8
     QUANTITY: W-VELOCITY
     Coordinates (X,Y,Z):    1.000000E-02   -5.000000E-05    8.000000E-02
     TEMPORAL STATISTIC: RUNNING AVERAGE
 322 ID: Wp8
     QUANTITY: W-VELOCITY
     Coordinates (X,Y,Z):    2.000000E-02   -5.000000E-05    8.000000E-02
     TEMPORAL STATISTIC: RUNNING AVERAGE
 323 ID: Wp8
     QUANTITY: W-VELOCITY
     Coordinates (X,Y,Z):    3.000000E-02   -5.000000E-05    8.000000E-02
     TEMPORAL STATISTIC: RUNNING AVERAGE
 324 ID: Wp8
     QUANTITY: W-VELOCITY
     Coordinates (X,Y,Z):    4.000000E-02   -5.000000E-05    8.000000E-02
     TEMPORAL STATISTIC: RUNNING AVERAGE
 325 ID: Wp8
     QUANTITY: W-VELOCITY
     Coordinates (X,Y,Z):    5.000000E-02   -5.000000E-05    8.000000E-02
     TEMPORAL STATISTIC: RUNNING AVERAGE
 326 ID: Wp8
     QUANTITY: W-VELOCITY
     Coordinates (X,Y,Z):    6.000000E-02   -5.000000E-05    8.000000E-02
     TEMPORAL STATISTIC: RUNNING AVERAGE
 327 ID: Wp8
     QUANTITY: W-VELOCITY
     Coordinates (X,Y,Z):    7.000000E-02   -5.000000E-05    8.000000E-02
     TEMPORAL STATISTIC: RUNNING AVERAGE
 328 ID: Wp8
     QUANTITY: W-VELOCITY
     Coordinates (X,Y,Z):    8.000000E-02   -5.000000E-05    8.000000E-02
     TEMPORAL STATISTIC: RUNNING AVERAGE
 329 ID: Wp8
     QUANTITY: W-VELOCITY
     Coordinates (X,Y,Z):    9.000000E-02   -5.000000E-05    8.000000E-02
     TEMPORAL STATISTIC: RUNNING AVERAGE
 330 ID: Wp8
     QUANTITY: W-VELOCITY
     Coordinates (X,Y,Z):    1.000000E-01   -5.000000E-05    8.000000E-02
     TEMPORAL STATISTIC: RUNNING AVERAGE
 331 ID: Wp8
     QUANTITY: W-VELOCITY
     Coordinates (X,Y,Z):    1.100000E-01   -5.000000E-05    8.000000E-02
     TEMPORAL STATISTIC: RUNNING AVERAGE
 332 ID: Wp8
     QUANTITY: W-VELOCITY
     Coordinates (X,Y,Z):    1.200000E-01   -5.000000E-05    8.000000E-02
     TEMPORAL STATISTIC: RUNNING AVERAGE
 333 ID: Wp8
     QUANTITY: W-VELOCITY
     Coordinates (X,Y,Z):    1.300000E-01   -5.000000E-05    8.000000E-02
     TEMPORAL STATISTIC: RUNNING AVERAGE
 334 ID: Wp8
     QUANTITY: W-VELOCITY
     Coordinates (X,Y,Z):    1.400000E-01   -5.000000E-05    8.000000E-02
     TEMPORAL STATISTIC: RUNNING AVERAGE
 335 ID: Wp8
     QUANTITY: W-VELOCITY
     Coordinates (X,Y,Z):    1.499500E-01   -5.000000E-05    8.000000E-02
     TEMPORAL STATISTIC: RUNNING AVERAGE
 336 ID: Wp8
     QUANTITY: W-VELOCITY
     Coordinates (X,Y,Z):    1.600000E-01   -5.000000E-05    8.000000E-02
     TEMPORAL STATISTIC: RUNNING AVERAGE
 337 ID: Wp10
     QUANTITY: W-VELOCITY
     Coordinates (X,Y,Z):   -4.000000E-02   -5.000000E-05    1.000000E-01
     TEMPORAL STATISTIC: RUNNING AVERAGE
 338 ID: Wp10
     QUANTITY: W-VELOCITY
     Coordinates (X,Y,Z):   -3.000000E-02   -5.000000E-05    1.000000E-01
     TEMPORAL STATISTIC: RUNNING AVERAGE
 339 ID: Wp10
     QUANTITY: W-VELOCITY
     Coordinates (X,Y,Z):   -2.000000E-02   -5.000000E-05    1.000000E-01
     TEMPORAL STATISTIC: RUNNING AVERAGE
 340 ID: Wp10
     QUANTITY: W-VELOCITY
     Coordinates (X,Y,Z):   -1.000000E-02   -5.000000E-05    1.000000E-01
     TEMPORAL STATISTIC: RUNNING AVERAGE
 341 ID: Wp10
     QUANTITY: W-VELOCITY
     Coordinates (X,Y,Z):   -5.000000E-05   -5.000000E-05    1.000000E-01
     TEMPORAL STATISTIC: RUNNING AVERAGE
 342 ID: Wp10
     QUANTITY: W-VELOCITY
     Coordinates (X,Y,Z):    1.000000E-02   -5.000000E-05    1.000000E-01
     TEMPORAL STATISTIC: RUNNING AVERAGE
 343 ID: Wp10
     QUANTITY: W-VELOCITY
     Coordinates (X,Y,Z):    2.000000E-02   -5.000000E-05    1.000000E-01
     TEMPORAL STATISTIC: RUNNING AVERAGE
 344 ID: Wp10
     QUANTITY: W-VELOCITY
     Coordinates (X,Y,Z):    3.000000E-02   -5.000000E-05    1.000000E-01
     TEMPORAL STATISTIC: RUNNING AVERAGE
 345 ID: Wp10
     QUANTITY: W-VELOCITY
     Coordinates (X,Y,Z):    4.000000E-02   -5.000000E-05    1.000000E-01
     TEMPORAL STATISTIC: RUNNING AVERAGE
 346 ID: Wp10
     QUANTITY: W-VELOCITY
     Coordinates (X,Y,Z):    5.000000E-02   -5.000000E-05    1.000000E-01
     TEMPORAL STATISTIC: RUNNING AVERAGE
 347 ID: Wp10
     QUANTITY: W-VELOCITY
     Coordinates (X,Y,Z):    6.000000E-02   -5.000000E-05    1.000000E-01
     TEMPORAL STATISTIC: RUNNING AVERAGE
 348 ID: Wp10
     QUANTITY: W-VELOCITY
     Coordinates (X,Y,Z):    7.000000E-02   -5.000000E-05    1.000000E-01
     TEMPORAL STATISTIC: RUNNING AVERAGE
 349 ID: Wp10
     QUANTITY: W-VELOCITY
     Coordinates (X,Y,Z):    8.000000E-02   -5.000000E-05    1.000000E-01
     TEMPORAL STATISTIC: RUNNING AVERAGE
 350 ID: Wp10
     QUANTITY: W-VELOCITY
     Coordinates (X,Y,Z):    9.000000E-02   -5.000000E-05    1.000000E-01
     TEMPORAL STATISTIC: RUNNING AVERAGE
 351 ID: Wp10
     QUANTITY: W-VELOCITY
     Coordinates (X,Y,Z):    1.000000E-01   -5.000000E-05    1.000000E-01
     TEMPORAL STATISTIC: RUNNING AVERAGE
 352 ID: Wp10
     QUANTITY: W-VELOCITY
     Coordinates (X,Y,Z):    1.100000E-01   -5.000000E-05    1.000000E-01
     TEMPORAL STATISTIC: RUNNING AVERAGE
 353 ID: Wp10
     QUANTITY: W-VELOCITY
     Coordinates (X,Y,Z):    1.200000E-01   -5.000000E-05    1.000000E-01
     TEMPORAL STATISTIC: RUNNING AVERAGE
 354 ID: Wp10
     QUANTITY: W-VELOCITY
     Coordinates (X,Y,Z):    1.300000E-01   -5.000000E-05    1.000000E-01
     TEMPORAL STATISTIC: RUNNING AVERAGE
 355 ID: Wp10
     QUANTITY: W-VELOCITY
     Coordinates (X,Y,Z):    1.400000E-01   -5.000000E-05    1.000000E-01
     TEMPORAL STATISTIC: RUNNING AVERAGE
 356 ID: Wp10
     QUANTITY: W-VELOCITY
     Coordinates (X,Y,Z):    1.499500E-01   -5.000000E-05    1.000000E-01
     TEMPORAL STATISTIC: RUNNING AVERAGE
 357 ID: Wp10
     QUANTITY: W-VELOCITY
     Coordinates (X,Y,Z):    1.600000E-01   -5.000000E-05    1.000000E-01
     TEMPORAL STATISTIC: RUNNING AVERAGE
 358 ID: Wp12
     QUANTITY: W-VELOCITY
     Coordinates (X,Y,Z):   -4.000000E-02   -5.000000E-05    1.200000E-01
     TEMPORAL STATISTIC: RUNNING AVERAGE
 359 ID: Wp12
     QUANTITY: W-VELOCITY
     Coordinates (X,Y,Z):   -3.000000E-02   -5.000000E-05    1.200000E-01
     TEMPORAL STATISTIC: RUNNING AVERAGE
 360 ID: Wp12
     QUANTITY: W-VELOCITY
     Coordinates (X,Y,Z):   -2.000000E-02   -5.000000E-05    1.200000E-01
     TEMPORAL STATISTIC: RUNNING AVERAGE
 361 ID: Wp12
     QUANTITY: W-VELOCITY
     Coordinates (X,Y,Z):   -1.000000E-02   -5.000000E-05    1.200000E-01
     TEMPORAL STATISTIC: RUNNING AVERAGE
 362 ID: Wp12
     QUANTITY: W-VELOCITY
     Coordinates (X,Y,Z):   -5.000000E-05   -5.000000E-05    1.200000E-01
     TEMPORAL STATISTIC: RUNNING AVERAGE
 363 ID: Wp12
     QUANTITY: W-VELOCITY
     Coordinates (X,Y,Z):    1.000000E-02   -5.000000E-05    1.200000E-01
     TEMPORAL STATISTIC: RUNNING AVERAGE
 364 ID: Wp12
     QUANTITY: W-VELOCITY
     Coordinates (X,Y,Z):    2.000000E-02   -5.000000E-05    1.200000E-01
     TEMPORAL STATISTIC: RUNNING AVERAGE
 365 ID: Wp12
     QUANTITY: W-VELOCITY
     Coordinates (X,Y,Z):    3.000000E-02   -5.000000E-05    1.200000E-01
     TEMPORAL STATISTIC: RUNNING AVERAGE
 366 ID: Wp12
     QUANTITY: W-VELOCITY
     Coordinates (X,Y,Z):    4.000000E-02   -5.000000E-05    1.200000E-01
     TEMPORAL STATISTIC: RUNNING AVERAGE
 367 ID: Wp12
     QUANTITY: W-VELOCITY
     Coordinates (X,Y,Z):    5.000000E-02   -5.000000E-05    1.200000E-01
     TEMPORAL STATISTIC: RUNNING AVERAGE
 368 ID: Wp12
     QUANTITY: W-VELOCITY
     Coordinates (X,Y,Z):    6.000000E-02   -5.000000E-05    1.200000E-01
     TEMPORAL STATISTIC: RUNNING AVERAGE
 369 ID: Wp12
     QUANTITY: W-VELOCITY
     Coordinates (X,Y,Z):    7.000000E-02   -5.000000E-05    1.200000E-01
     TEMPORAL STATISTIC: RUNNING AVERAGE
 370 ID: Wp12
     QUANTITY: W-VELOCITY
     Coordinates (X,Y,Z):    8.000000E-02   -5.000000E-05    1.200000E-01
     TEMPORAL STATISTIC: RUNNING AVERAGE
 371 ID: Wp12
     QUANTITY: W-VELOCITY
     Coordinates (X,Y,Z):    9.000000E-02   -5.000000E-05    1.200000E-01
     TEMPORAL STATISTIC: RUNNING AVERAGE
 372 ID: Wp12
     QUANTITY: W-VELOCITY
     Coordinates (X,Y,Z):    1.000000E-01   -5.000000E-05    1.200000E-01
     TEMPORAL STATISTIC: RUNNING AVERAGE
 373 ID: Wp12
     QUANTITY: W-VELOCITY
     Coordinates (X,Y,Z):    1.100000E-01   -5.000000E-05    1.200000E-01
     TEMPORAL STATISTIC: RUNNING AVERAGE
 374 ID: Wp12
     QUANTITY: W-VELOCITY
     Coordinates (X,Y,Z):    1.200000E-01   -5.000000E-05    1.200000E-01
     TEMPORAL STATISTIC: RUNNING AVERAGE
 375 ID: Wp12
     QUANTITY: W-VELOCITY
     Coordinates (X,Y,Z):    1.300000E-01   -5.000000E-05    1.200000E-01
     TEMPORAL STATISTIC: RUNNING AVERAGE
 376 ID: Wp12
     QUANTITY: W-VELOCITY
     Coordinates (X,Y,Z):    1.400000E-01   -5.000000E-05    1.200000E-01
     TEMPORAL STATISTIC: RUNNING AVERAGE
 377 ID: Wp12
     QUANTITY: W-VELOCITY
     Coordinates (X,Y,Z):    1.499500E-01   -5.000000E-05    1.200000E-01
     TEMPORAL STATISTIC: RUNNING AVERAGE
 378 ID: Wp12
     QUANTITY: W-VELOCITY
     Coordinates (X,Y,Z):    1.600000E-01   -5.000000E-05    1.200000E-01
     TEMPORAL STATISTIC: RUNNING AVERAGE
 379 ID: Wp14
     QUANTITY: W-VELOCITY
     Coordinates (X,Y,Z):   -4.000000E-02   -5.000000E-05    1.400000E-01
     TEMPORAL STATISTIC: RUNNING AVERAGE
 380 ID: Wp14
     QUANTITY: W-VELOCITY
     Coordinates (X,Y,Z):   -3.000000E-02   -5.000000E-05    1.400000E-01
     TEMPORAL STATISTIC: RUNNING AVERAGE
 381 ID: Wp14
     QUANTITY: W-VELOCITY
     Coordinates (X,Y,Z):   -2.000000E-02   -5.000000E-05    1.400000E-01
     TEMPORAL STATISTIC: RUNNING AVERAGE
 382 ID: Wp14
     QUANTITY: W-VELOCITY
     Coordinates (X,Y,Z):   -1.000000E-02   -5.000000E-05    1.400000E-01
     TEMPORAL STATISTIC: RUNNING AVERAGE
 383 ID: Wp14
     QUANTITY: W-VELOCITY
     Coordinates (X,Y,Z):   -5.000000E-05   -5.000000E-05    1.400000E-01
     TEMPORAL STATISTIC: RUNNING AVERAGE
 384 ID: Wp14
     QUANTITY: W-VELOCITY
     Coordinates (X,Y,Z):    1.000000E-02   -5.000000E-05    1.400000E-01
     TEMPORAL STATISTIC: RUNNING AVERAGE
 385 ID: Wp14
     QUANTITY: W-VELOCITY
     Coordinates (X,Y,Z):    2.000000E-02   -5.000000E-05    1.400000E-01
     TEMPORAL STATISTIC: RUNNING AVERAGE
 386 ID: Wp14
     QUANTITY: W-VELOCITY
     Coordinates (X,Y,Z):    3.000000E-02   -5.000000E-05    1.400000E-01
     TEMPORAL STATISTIC: RUNNING AVERAGE
 387 ID: Wp14
     QUANTITY: W-VELOCITY
     Coordinates (X,Y,Z):    4.000000E-02   -5.000000E-05    1.400000E-01
     TEMPORAL STATISTIC: RUNNING AVERAGE
 388 ID: Wp14
     QUANTITY: W-VELOCITY
     Coordinates (X,Y,Z):    5.000000E-02   -5.000000E-05    1.400000E-01
     TEMPORAL STATISTIC: RUNNING AVERAGE
 389 ID: Wp14
     QUANTITY: W-VELOCITY
     Coordinates (X,Y,Z):    6.000000E-02   -5.000000E-05    1.400000E-01
     TEMPORAL STATISTIC: RUNNING AVERAGE
 390 ID: Wp14
     QUANTITY: W-VELOCITY
     Coordinates (X,Y,Z):    7.000000E-02   -5.000000E-05    1.400000E-01
     TEMPORAL STATISTIC: RUNNING AVERAGE
 391 ID: Wp14
     QUANTITY: W-VELOCITY
     Coordinates (X,Y,Z):    8.000000E-02   -5.000000E-05    1.400000E-01
     TEMPORAL STATISTIC: RUNNING AVERAGE
 392 ID: Wp14
     QUANTITY: W-VELOCITY
     Coordinates (X,Y,Z):    9.000000E-02   -5.000000E-05    1.400000E-01
     TEMPORAL STATISTIC: RUNNING AVERAGE
 393 ID: Wp14
     QUANTITY: W-VELOCITY
     Coordinates (X,Y,Z):    1.000000E-01   -5.000000E-05    1.400000E-01
     TEMPORAL STATISTIC: RUNNING AVERAGE
 394 ID: Wp14
     QUANTITY: W-VELOCITY
     Coordinates (X,Y,Z):    1.100000E-01   -5.000000E-05    1.400000E-01
     TEMPORAL STATISTIC: RUNNING AVERAGE
 395 ID: Wp14
     QUANTITY: W-VELOCITY
     Coordinates (X,Y,Z):    1.200000E-01   -5.000000E-05    1.400000E-01
     TEMPORAL STATISTIC: RUNNING AVERAGE
 396 ID: Wp14
     QUANTITY: W-VELOCITY
     Coordinates (X,Y,Z):    1.300000E-01   -5.000000E-05    1.400000E-01
     TEMPORAL STATISTIC: RUNNING AVERAGE
 397 ID: Wp14
     QUANTITY: W-VELOCITY
     Coordinates (X,Y,Z):    1.400000E-01   -5.000000E-05    1.400000E-01
     TEMPORAL STATISTIC: RUNNING AVERAGE
 398 ID: Wp14
     QUANTITY: W-VELOCITY
     Coordinates (X,Y,Z):    1.499500E-01   -5.000000E-05    1.400000E-01
     TEMPORAL STATISTIC: RUNNING AVERAGE
 399 ID: Wp14
     QUANTITY: W-VELOCITY
     Coordinates (X,Y,Z):    1.600000E-01   -5.000000E-05    1.400000E-01
     TEMPORAL STATISTIC: RUNNING AVERAGE
 400 ID: Wp16
     QUANTITY: W-VELOCITY
     Coordinates (X,Y,Z):   -4.000000E-02   -5.000000E-05    1.600000E-01
     TEMPORAL STATISTIC: RUNNING AVERAGE
 401 ID: Wp16
     QUANTITY: W-VELOCITY
     Coordinates (X,Y,Z):   -3.000000E-02   -5.000000E-05    1.600000E-01
[...]
 Time Step:  48100, Simulation Time:     22.42 s, Step Size: 0.00048 s, Pressure Iterations: 100
 Time Step:  48200, Simulation Time:     22.48 s, Step Size: 0.00053 s, Pressure Iterations: 100
 Time Step:  48300, Simulation Time:     22.53 s, Step Size: 0.00057 s, Pressure Iterations: 100
 Time Step:  48400, Simulation Time:     22.59 s, Step Size: 0.00051 s, Pressure Iterations: 100
 Time Step:  48500, Simulation Time:     22.64 s, Step Size: 0.00046 s, Pressure Iterations: 100
 Time Step:  48600, Simulation Time:     22.68 s, Step Size: 0.00040 s, Pressure Iterations: 100
 Time Step:  48700, Simulation Time:     22.72 s, Step Size: 0.00044 s, Pressure Iterations: 100
 Time Step:  48800, Simulation Time:     22.76 s, Step Size: 0.00034 s, Pressure Iterations: 100
 Time Step:  48900, Simulation Time:     22.79 s, Step Size: 0.00034 s, Pressure Iterations: 100
 Time Step:  49000, Simulation Time:     22.83 s, Step Size: 0.00042 s, Pressure Iterations: 100
 Time Step:  49100, Simulation Time:     22.88 s, Step Size: 0.00060 s, Pressure Iterations: 100
 Time Step:  49200, Simulation Time:     22.95 s, Step Size: 0.00066 s, Pressure Iterations: 100
 Time Step:  49300, Simulation Time:     23.00 s, Step Size: 0.00047 s, Pressure Iterations: 100
 Time Step:  49400, Simulation Time:     23.04 s, Step Size: 0.00037 s, Pressure Iterations: 100
 Time Step:  49500, Simulation Time:     23.08 s, Step Size: 0.00044 s, Pressure Iterations: 100
 Time Step:  49600, Simulation Time:     23.12 s, Step Size: 0.00044 s, Pressure Iterations: 100
 Time Step:  49700, Simulation Time:     23.17 s, Step Size: 0.00039 s, Pressure Iterations: 100
 Time Step:  49800, Simulation Time:     23.21 s, Step Size: 0.00038 s, Pressure Iterations: 100
 Time Step:  49900, Simulation Time:     23.25 s, Step Size: 0.00046 s, Pressure Iterations: 100
 Time Step:  50000, Simulation Time:     23.30 s, Step Size: 0.00056 s, Pressure Iterations: 100
 Time Step:  50100, Simulation Time:     23.36 s, Step Size: 0.00061 s, Pressure Iterations: 100
 Time Step:  50200, Simulation Time:     23.41 s, Step Size: 0.00054 s, Pressure Iterations: 100
 Time Step:  50300, Simulation Time:     23.46 s, Step Size: 0.00048 s, Pressure Iterations: 100
 Time Step:  50400, Simulation Time:     23.50 s, Step Size: 0.00037 s, Pressure Iterations: 100
 Time Step:  50500, Simulation Time:     23.54 s, Step Size: 0.00045 s, Pressure Iterations: 100
 Time Step:  50600, Simulation Time:     23.59 s, Step Size: 0.00045 s, Pressure Iterations: 100
 Time Step:  50700, Simulation Time:     23.64 s, Step Size: 0.00055 s, Pressure Iterations: 100
 Time Step:  50800, Simulation Time:     23.69 s, Step Size: 0.00049 s, Pressure Iterations: 100
 Time Step:  50900, Simulation Time:     23.74 s, Step Size: 0.00063 s, Pressure Iterations: 100
 Time Step:  51000, Simulation Time:     23.80 s, Step Size: 0.00056 s, Pressure Iterations: 100
 Time Step:  51100, Simulation Time:     23.85 s, Step Size: 0.00045 s, Pressure Iterations: 100
 Time Step:  51200, Simulation Time:     23.90 s, Step Size: 0.00045 s, Pressure Iterations: 100
 Time Step:  51300, Simulation Time:     23.94 s, Step Size: 0.00045 s, Pressure Iterations: 100
 Time Step:  51400, Simulation Time:     23.98 s, Step Size: 0.00036 s, Pressure Iterations: 100
 Time Step:  51500, Simulation Time:     24.02 s, Step Size: 0.00043 s, Pressure Iterations: 100
 Time Step:  51600, Simulation Time:     24.06 s, Step Size: 0.00046 s, Pressure Iterations: 100
 Time Step:  51700, Simulation Time:     24.11 s, Step Size: 0.00051 s, Pressure Iterations: 100
 Time Step:  51800, Simulation Time:     24.17 s, Step Size: 0.00061 s, Pressure Iterations: 100
 Time Step:  51900, Simulation Time:     24.23 s, Step Size: 0.00061 s, Pressure Iterations: 100
 Time Step:  52000, Simulation Time:     24.28 s, Step Size: 0.00049 s, Pressure Iterations: 100
 Time Step:  52100, Simulation Time:     24.33 s, Step Size: 0.00044 s, Pressure Iterations: 100
 Time Step:  52200, Simulation Time:     24.37 s, Step Size: 0.00046 s, Pressure Iterations: 100
 Time Step:  52300, Simulation Time:     24.42 s, Step Size: 0.00046 s, Pressure Iterations: 100
 Time Step:  52400, Simulation Time:     24.46 s, Step Size: 0.00041 s, Pressure Iterations: 100
 Time Step:  52500, Simulation Time:     24.50 s, Step Size: 0.00037 s, Pressure Iterations: 100
 Time Step:  52600, Simulation Time:     24.54 s, Step Size: 0.00049 s, Pressure Iterations: 100
 Time Step:  52700, Simulation Time:     24.60 s, Step Size: 0.00054 s, Pressure Iterations: 100
 Time Step:  52800, Simulation Time:     24.65 s, Step Size: 0.00048 s, Pressure Iterations: 100
 Time Step:  52900, Simulation Time:     24.70 s, Step Size: 0.00048 s, Pressure Iterations: 100
 Time Step:  53000, Simulation Time:     24.74 s, Step Size: 0.00043 s, Pressure Iterations: 100
 Time Step:  53100, Simulation Time:     24.78 s, Step Size: 0.00043 s, Pressure Iterations: 100
 Time Step:  53200, Simulation Time:     24.83 s, Step Size: 0.00043 s, Pressure Iterations: 100
 Time Step:  53300, Simulation Time:     24.86 s, Step Size: 0.00042 s, Pressure Iterations: 100
 Time Step:  53400, Simulation Time:     24.91 s, Step Size: 0.00051 s, Pressure Iterations: 100
 Time Step:  53500, Simulation Time:     24.96 s, Step Size: 0.00060 s, Pressure Iterations: 100
 Time Step:  53600, Simulation Time:     25.02 s, Step Size: 0.00060 s, Pressure Iterations: 100
 Time Step:  53700, Simulation Time:     25.08 s, Step Size: 0.00054 s, Pressure Iterations: 100
 Time Step:  53800, Simulation Time:     25.13 s, Step Size: 0.00047 s, Pressure Iterations: 100
 Time Step:  53900, Simulation Time:     25.17 s, Step Size: 0.00037 s, Pressure Iterations: 100
 Time Step:  54000, Simulation Time:     25.21 s, Step Size: 0.00040 s, Pressure Iterations: 100
 Time Step:  54100, Simulation Time:     25.25 s, Step Size: 0.00040 s, Pressure Iterations: 100
 Time Step:  54200, Simulation Time:     25.29 s, Step Size: 0.00039 s, Pressure Iterations: 100
 Time Step:  54300, Simulation Time:     25.33 s, Step Size: 0.00042 s, Pressure Iterations: 100
 Time Step:  54400, Simulation Time:     25.38 s, Step Size: 0.00051 s, Pressure Iterations: 100
 Time Step:  54500, Simulation Time:     25.43 s, Step Size: 0.00056 s, Pressure Iterations: 100
 Time Step:  54600, Simulation Time:     25.48 s, Step Size: 0.00049 s, Pressure Iterations: 100
 Time Step:  54700, Simulation Time:     25.53 s, Step Size: 0.00048 s, Pressure Iterations: 100
 Time Step:  54800, Simulation Time:     25.57 s, Step Size: 0.00042 s, Pressure Iterations: 100
 Time Step:  54900, Simulation Time:     25.61 s, Step Size: 0.00042 s, Pressure Iterations: 100
 Time Step:  55000, Simulation Time:     25.65 s, Step Size: 0.00033 s, Pressure Iterations: 100
 Time Step:  55100, Simulation Time:     25.69 s, Step Size: 0.00041 s, Pressure Iterations: 100
 Time Step:  55200, Simulation Time:     25.73 s, Step Size: 0.00049 s, Pressure Iterations: 100
 Time Step:  55300, Simulation Time:     25.79 s, Step Size: 0.00065 s, Pressure Iterations: 100
 Time Step:  55400, Simulation Time:     25.85 s, Step Size: 0.00059 s, Pressure Iterations: 100
 Time Step:  55500, Simulation Time:     25.90 s, Step Size: 0.00052 s, Pressure Iterations: 100
 Time Step:  55600, Simulation Time:     25.96 s, Step Size: 0.00047 s, Pressure Iterations: 100
 Time Step:  55700, Simulation Time:     26.00 s, Step Size: 0.00042 s, Pressure Iterations: 100
 Time Step:  55800, Simulation Time:     26.04 s, Step Size: 0.00037 s, Pressure Iterations: 100
 Time Step:  55900, Simulation Time:     26.07 s, Step Size: 0.00040 s, Pressure Iterations: 100
 Time Step:  56000, Simulation Time:     26.12 s, Step Size: 0.00044 s, Pressure Iterations: 100
 Time Step:  56100, Simulation Time:     26.16 s, Step Size: 0.00059 s, Pressure Iterations: 100
 Time Step:  56200, Simulation Time:     26.23 s, Step Size: 0.00065 s, Pressure Iterations: 100
 Time Step:  56300, Simulation Time:     26.28 s, Step Size: 0.00051 s, Pressure Iterations: 100
 Time Step:  56400, Simulation Time:     26.33 s, Step Size: 0.00050 s, Pressure Iterations: 100
 Time Step:  56500, Simulation Time:     26.38 s, Step Size: 0.00043 s, Pressure Iterations: 100
 Time Step:  56600, Simulation Time:     26.42 s, Step Size: 0.00038 s, Pressure Iterations: 100
 Time Step:  56700, Simulation Time:     26.45 s, Step Size: 0.00038 s, Pressure Iterations: 100
 Time Step:  56800, Simulation Time:     26.49 s, Step Size: 0.00042 s, Pressure Iterations: 100
 Time Step:  56900, Simulation Time:     26.54 s, Step Size: 0.00046 s, Pressure Iterations: 100
 Time Step:  57000, Simulation Time:     26.59 s, Step Size: 0.00051 s, Pressure Iterations: 100
 Time Step:  57100, Simulation Time:     26.65 s, Step Size: 0.00062 s, Pressure Iterations: 100
 Time Step:  57200, Simulation Time:     26.70 s, Step Size: 0.00049 s, Pressure Iterations: 100
 Time Step:  57300, Simulation Time:     26.75 s, Step Size: 0.00038 s, Pressure Iterations: 100
 Time Step:  57400, Simulation Time:     26.79 s, Step Size: 0.00045 s, Pressure Iterations: 100
 Time Step:  57500, Simulation Time:     26.83 s, Step Size: 0.00041 s, Pressure Iterations: 100
 Time Step:  57600, Simulation Time:     26.88 s, Step Size: 0.00040 s, Pressure Iterations: 100
 Time Step:  57700, Simulation Time:     26.92 s, Step Size: 0.00044 s, Pressure Iterations: 100
 Time Step:  57800, Simulation Time:     26.96 s, Step Size: 0.00053 s, Pressure Iterations: 100
 Time Step:  57900, Simulation Time:     27.02 s, Step Size: 0.00053 s, Pressure Iterations: 100
 Time Step:  58000, Simulation Time:     27.07 s, Step Size: 0.00052 s, Pressure Iterations: 100
 Time Step:  58100, Simulation Time:     27.12 s, Step Size: 0.00041 s, Pressure Iterations: 100
 Time Step:  58200, Simulation Time:     27.17 s, Step Size: 0.00050 s, Pressure Iterations: 100
 Time Step:  58300, Simulation Time:     27.22 s, Step Size: 0.00045 s, Pressure Iterations: 100
 Time Step:  58400, Simulation Time:     27.26 s, Step Size: 0.00040 s, Pressure Iterations: 100
 Time Step:  58500, Simulation Time:     27.30 s, Step Size: 0.00044 s, Pressure Iterations: 100
 Time Step:  58600, Simulation Time:     27.34 s, Step Size: 0.00040 s, Pressure Iterations: 100
 Time Step:  58700, Simulation Time:     27.39 s, Step Size: 0.00048 s, Pressure Iterations: 100
 Time Step:  58800, Simulation Time:     27.44 s, Step Size: 0.00047 s, Pressure Iterations: 100
 Time Step:  58900, Simulation Time:     27.48 s, Step Size: 0.00047 s, Pressure Iterations: 100
 Time Step:  59000, Simulation Time:     27.53 s, Step Size: 0.00047 s, Pressure Iterations: 100
 Time Step:  59100, Simulation Time:     27.58 s, Step Size: 0.00047 s, Pressure Iterations: 100
 Time Step:  59200, Simulation Time:     27.63 s, Step Size: 0.00047 s, Pressure Iterations: 100
 Time Step:  59300, Simulation Time:     27.66 s, Step Size: 0.00038 s, Pressure Iterations: 100
 Time Step:  59400, Simulation Time:     27.70 s, Step Size: 0.00042 s, Pressure Iterations: 100
 Time Step:  59500, Simulation Time:     27.75 s, Step Size: 0.00041 s, Pressure Iterations: 100
 Time Step:  59600, Simulation Time:     27.79 s, Step Size: 0.00045 s, Pressure Iterations: 100
 Time Step:  59700, Simulation Time:     27.84 s, Step Size: 0.00049 s, Pressure Iterations: 100
 Time Step:  59800, Simulation Time:     27.89 s, Step Size: 0.00054 s, Pressure Iterations: 100
 Time Step:  59900, Simulation Time:     27.95 s, Step Size: 0.00048 s, Pressure Iterations: 100
 Time Step:  60000, Simulation Time:     27.99 s, Step Size: 0.00039 s, Pressure Iterations: 100
 Time Step:  60100, Simulation Time:     28.03 s, Step Size: 0.00038 s, Pressure Iterations: 100
 Time Step:  60200, Simulation Time:     28.07 s, Step Size: 0.00037 s, Pressure Iterations: 100
 Time Step:  60300, Simulation Time:     28.10 s, Step Size: 0.00040 s, Pressure Iterations: 100
 Time Step:  60400, Simulation Time:     28.15 s, Step Size: 0.00044 s, Pressure Iterations: 100
 Time Step:  60500, Simulation Time:     28.19 s, Step Size: 0.00043 s, Pressure Iterations: 100
 Time Step:  60600, Simulation Time:     28.23 s, Step Size: 0.00042 s, Pressure Iterations: 100
 Time Step:  60700, Simulation Time:     28.28 s, Step Size: 0.00042 s, Pressure Iterations: 100
 Time Step:  60800, Simulation Time:     28.32 s, Step Size: 0.00042 s, Pressure Iterations: 100
 Time Step:  60900, Simulation Time:     28.36 s, Step Size: 0.00042 s, Pressure Iterations: 100
 Time Step:  61000, Simulation Time:     28.40 s, Step Size: 0.00046 s, Pressure Iterations: 100
 Time Step:  61100, Simulation Time:     28.45 s, Step Size: 0.00050 s, Pressure Iterations: 100
 Time Step:  61200, Simulation Time:     28.50 s, Step Size: 0.00045 s, Pressure Iterations: 100
 Time Step:  61300, Simulation Time:     28.54 s, Step Size: 0.00039 s, Pressure Iterations: 100
 Time Step:  61400, Simulation Time:     28.58 s, Step Size: 0.00039 s, Pressure Iterations: 100
 Time Step:  61500, Simulation Time:     28.61 s, Step Size: 0.00031 s, Pressure Iterations: 100
 Time Step:  61600, Simulation Time:     28.65 s, Step Size: 0.00045 s, Pressure Iterations: 100
 Time Step:  61700, Simulation Time:     28.69 s, Step Size: 0.00049 s, Pressure Iterations: 100
 Time Step:  61800, Simulation Time:     28.75 s, Step Size: 0.00054 s, Pressure Iterations: 100
 Time Step:  61900, Simulation Time:     28.80 s, Step Size: 0.00049 s, Pressure Iterations: 100
 Time Step:  62000, Simulation Time:     28.85 s, Step Size: 0.00043 s, Pressure Iterations: 100
 Time Step:  62100, Simulation Time:     28.89 s, Step Size: 0.00043 s, Pressure Iterations: 100
 Time Step:  62200, Simulation Time:     28.93 s, Step Size: 0.00034 s, Pressure Iterations: 100
 Time Step:  62300, Simulation Time:     28.97 s, Step Size: 0.00038 s, Pressure Iterations: 100
 Time Step:  62400, Simulation Time:     29.01 s, Step Size: 0.00042 s, Pressure Iterations: 100
 Time Step:  62500, Simulation Time:     29.05 s, Step Size: 0.00042 s, Pressure Iterations: 100
 Time Step:  62600, Simulation Time:     29.09 s, Step Size: 0.00042 s, Pressure Iterations: 100
 Time Step:  62700, Simulation Time:     29.14 s, Step Size: 0.00050 s, Pressure Iterations: 100
 Time Step:  62800, Simulation Time:     29.19 s, Step Size: 0.00045 s, Pressure Iterations: 100
 Time Step:  62900, Simulation Time:     29.23 s, Step Size: 0.00045 s, Pressure Iterations: 100
 Time Step:  63000, Simulation Time:     29.27 s, Step Size: 0.00040 s, Pressure Iterations: 100
 Time Step:  63100, Simulation Time:     29.31 s, Step Size: 0.00040 s, Pressure Iterations: 100
 Time Step:  63200, Simulation Time:     29.35 s, Step Size: 0.00044 s, Pressure Iterations: 100
 Time Step:  63300, Simulation Time:     29.40 s, Step Size: 0.00044 s, Pressure Iterations: 100
 Time Step:  63400, Simulation Time:     29.44 s, Step Size: 0.00043 s, Pressure Iterations: 100
 Time Step:  63500, Simulation Time:     29.49 s, Step Size: 0.00048 s, Pressure Iterations: 100
 Time Step:  63600, Simulation Time:     29.53 s, Step Size: 0.00042 s, Pressure Iterations: 100
 Time Step:  63700, Simulation Time:     29.57 s, Step Size: 0.00046 s, Pressure Iterations: 100
 Time Step:  63800, Simulation Time:     29.62 s, Step Size: 0.00042 s, Pressure Iterations: 100
 Time Step:  63900, Simulation Time:     29.66 s, Step Size: 0.00046 s, Pressure Iterations: 100
 Time Step:  64000, Simulation Time:     29.71 s, Step Size: 0.00041 s, Pressure Iterations: 100
 Time Step:  64100, Simulation Time:     29.75 s, Step Size: 0.00037 s, Pressure Iterations: 100
 Time Step:  64200, Simulation Time:     29.79 s, Step Size: 0.00044 s, Pressure Iterations: 100
 Time Step:  64300, Simulation Time:     29.83 s, Step Size: 0.00049 s, Pressure Iterations: 100
 Time Step:  64400, Simulation Time:     29.88 s, Step Size: 0.00049 s, Pressure Iterations: 100
 Time Step:  64500, Simulation Time:     29.93 s, Step Size: 0.00059 s, Pressure Iterations: 100
 Time Step:  64600, Simulation Time:     29.99 s, Step Size: 0.00052 s, Pressure Iterations: 100
 Time Step:  64700, Simulation Time:     30.04 s, Step Size: 0.00050 s, Pressure Iterations: 100
 Time Step:  64800, Simulation Time:     30.08 s, Step Size: 0.00039 s, Pressure Iterations: 100
 Time Step:  64900, Simulation Time:     30.13 s, Step Size: 0.00039 s, Pressure Iterations: 100
 Time Step:  65000, Simulation Time:     30.16 s, Step Size: 0.00039 s, Pressure Iterations: 100
 Time Step:  65100, Simulation Time:     30.20 s, Step Size: 0.00043 s, Pressure Iterations: 100
 Time Step:  65200, Simulation Time:     30.25 s, Step Size: 0.00047 s, Pressure Iterations: 100
 Time Step:  65300, Simulation Time:     30.30 s, Step Size: 0.00057 s, Pressure Iterations: 100
 Time Step:  65400, Simulation Time:     30.36 s, Step Size: 0.00056 s, Pressure Iterations: 100
 Time Step:  65500, Simulation Time:     30.41 s, Step Size: 0.00045 s, Pressure Iterations: 100
 Time Step:  65600, Simulation Time:     30.45 s, Step Size: 0.00045 s, Pressure Iterations: 100
 Time Step:  65700, Simulation Time:     30.49 s, Step Size: 0.00040 s, Pressure Iterations: 100
 Time Step:  65800, Simulation Time:     30.54 s, Step Size: 0.00044 s, Pressure Iterations: 100
 Time Step:  65900, Simulation Time:     30.58 s, Step Size: 0.00044 s, Pressure Iterations: 100
 Time Step:  66000, Simulation Time:     30.62 s, Step Size: 0.00039 s, Pressure Iterations: 100
 Time Step:  66100, Simulation Time:     30.67 s, Step Size: 0.00052 s, Pressure Iterations: 100
 Time Step:  66200, Simulation Time:     30.72 s, Step Size: 0.00051 s, Pressure Iterations: 100
 Time Step:  66300, Simulation Time:     30.77 s, Step Size: 0.00057 s, Pressure Iterations: 100
 Time Step:  66400, Simulation Time:     30.82 s, Step Size: 0.00051 s, Pressure Iterations: 100
 Time Step:  66500, Simulation Time:     30.87 s, Step Size: 0.00040 s, Pressure Iterations: 100
 Time Step:  66600, Simulation Time:     30.91 s, Step Size: 0.00040 s, Pressure Iterations: 100
 Time Step:  66700, Simulation Time:     30.96 s, Step Size: 0.00043 s, Pressure Iterations: 100
 Time Step:  66800, Simulation Time:     31.00 s, Step Size: 0.00047 s, Pressure Iterations: 100
 Time Step:  66900, Simulation Time:     31.05 s, Step Size: 0.00056 s, Pressure Iterations: 100
 Time Step:  67000, Simulation Time:     31.11 s, Step Size: 0.00056 s, Pressure Iterations: 100
 Time Step:  67100, Simulation Time:     31.16 s, Step Size: 0.00050 s, Pressure Iterations: 100
 Time Step:  67200, Simulation Time:     31.21 s, Step Size: 0.00044 s, Pressure Iterations: 100
 Time Step:  67300, Simulation Time:     31.25 s, Step Size: 0.00040 s, Pressure Iterations: 100
 Time Step:  67400, Simulation Time:     31.29 s, Step Size: 0.00040 s, Pressure Iterations: 100
 Time Step:  67500, Simulation Time:     31.34 s, Step Size: 0.00053 s, Pressure Iterations: 100
 Time Step:  67600, Simulation Time:     31.40 s, Step Size: 0.00058 s, Pressure Iterations: 100
 Time Step:  67700, Simulation Time:     31.45 s, Step Size: 0.00046 s, Pressure Iterations: 100
 Time Step:  67800, Simulation Time:     31.49 s, Step Size: 0.00041 s, Pressure Iterations: 100
 Time Step:  67900, Simulation Time:     31.54 s, Step Size: 0.00045 s, Pressure Iterations: 100
 Time Step:  68000, Simulation Time:     31.58 s, Step Size: 0.00040 s, Pressure Iterations: 100
 Time Step:  68100, Simulation Time:     31.62 s, Step Size: 0.00040 s, Pressure Iterations: 100
 Time Step:  68200, Simulation Time:     31.66 s, Step Size: 0.00036 s, Pressure Iterations: 100
 Time Step:  68300, Simulation Time:     31.70 s, Step Size: 0.00044 s, Pressure Iterations: 100
 Time Step:  68400, Simulation Time:     31.74 s, Step Size: 0.00048 s, Pressure Iterations: 100
 Time Step:  68500, Simulation Time:     31.79 s, Step Size: 0.00048 s, Pressure Iterations: 100
 Time Step:  68600, Simulation Time:     31.84 s, Step Size: 0.00053 s, Pressure Iterations: 100
