
 Fire Dynamics Simulator

 Current Date     : August 17, 2023  12:18:33
 Revision         : FDS-6.8.0-564-g879930a-master
 Revision Date    : Wed Aug 16 13:01:02 2023 -0400
 Compiler         : ifort version 2021.7.1
 Compilation Date : Aug 16, 2023 16:23:58

 MPI Enabled;    Number of MPI Processes:       8
 OpenMP Disabled

 MPI version: 3.1
 MPI library version: Intel(R) MPI Library 2021.7 for Linux* OS


 Job TITLE        : (Concatenated) University of Waterloo Methanol Pool Burner, 2 cm resolution
 Job ID string    : Waterloo_Methanol_GEOM_Prescribed_2cm_cat


 Grid Dimensions, Mesh     1

   Cells in the X Direction            15
   Cells in the Y Direction            15
   Cells in the Z Direction            20
   Number of Grid Cells              4500


 Physical Dimensions, Mesh     1

   Length (m)                       0.300
   Width  (m)                       0.300
   Height (m)                       0.400
   Initial Time Step (s)            0.036

 Grid Dimensions, Mesh     2

   Cells in the X Direction            15
   Cells in the Y Direction            15
   Cells in the Z Direction            20
   Number of Grid Cells              4500


 Physical Dimensions, Mesh     2

   Length (m)                       0.300
   Width  (m)                       0.300
   Height (m)                       0.400
   Initial Time Step (s)            0.036

 Grid Dimensions, Mesh     3

   Cells in the X Direction            15
   Cells in the Y Direction            15
   Cells in the Z Direction            20
   Number of Grid Cells              4500


 Physical Dimensions, Mesh     3

   Length (m)                       0.300
   Width  (m)                       0.300
   Height (m)                       0.400
   Initial Time Step (s)            0.036

 Grid Dimensions, Mesh     4

   Cells in the X Direction            15
   Cells in the Y Direction            15
   Cells in the Z Direction            20
   Number of Grid Cells              4500


 Physical Dimensions, Mesh     4

   Length (m)                       0.300
   Width  (m)                       0.300
   Height (m)                       0.400
   Initial Time Step (s)            0.036

 Grid Dimensions, Mesh     5

   Cells in the X Direction            15
   Cells in the Y Direction            15
   Cells in the Z Direction            20
   Number of Grid Cells              4500


 Physical Dimensions, Mesh     5

   Length (m)                       0.300
   Width  (m)                       0.300
   Height (m)                       0.400
   Initial Time Step (s)            0.036

 Grid Dimensions, Mesh     6

   Cells in the X Direction            15
   Cells in the Y Direction            15
   Cells in the Z Direction            20
   Number of Grid Cells              4500


 Physical Dimensions, Mesh     6

   Length (m)                       0.300
   Width  (m)                       0.300
   Height (m)                       0.400
   Initial Time Step (s)            0.036

 Grid Dimensions, Mesh     7

   Cells in the X Direction            15
   Cells in the Y Direction            15
   Cells in the Z Direction            20
   Number of Grid Cells              4500


 Physical Dimensions, Mesh     7

   Length (m)                       0.300
   Width  (m)                       0.300
   Height (m)                       0.400
   Initial Time Step (s)            0.036

 Grid Dimensions, Mesh     8

   Cells in the X Direction            15
   Cells in the Y Direction            15
   Cells in the Z Direction            20
   Number of Grid Cells              4500


 Physical Dimensions, Mesh     8

   Length (m)                       0.300
   Width  (m)                       0.300
   Height (m)                       0.400
   Initial Time Step (s)            0.036

 Total Number of Grid Cells         36000


 Maximum Cell Aspect Ratio          1.000
 CFL Velocity Norm                      1


 Miscellaneous Parameters

   Simulation Start Time (s)          0.0
   Simulation End Time (s)           60.0
   Background Pressure (Pa)     101325.00
   Ambient Temperature (C)          20.00

   3D Cartesian
   LES Calculation
   Eddy Viscosity Model:  Deardorff (C_DEARDORFF = 0.10)
   Surface INERT Eddy Viscosity Model:  WALE (C_WALE = 0.60)
   Surface PAN Eddy Viscosity Model:  WALE (C_WALE = 0.60)
   Surface POOL Eddy Viscosity Model:  WALE (C_WALE = 0.60)
   Turbulent Prandtl Number:         0.50
   Turbulent Schmidt Number:         0.50


 Pressure solver information

   Solver:                          ULMAT
   Velocity tolerance (m/s):    1.000E-03
   Press eqn res tol (1/s^2):   5.000E+04
   Max pressure iterations:            100


 Background Stratification

      Z (m)     P_0 (Pa)    TMP_0 (C)
   ------------------------------------
        0.34    101321.01     20.00
        0.32    101321.25     20.00
        0.30    101321.48     20.00
        0.28    101321.72     20.00
        0.26    101321.95     20.00
        0.24    101322.19     20.00
        0.22    101322.42     20.00
        0.20    101322.65     20.00
        0.18    101322.89     20.00
        0.16    101323.12     20.00
        0.14    101323.36     20.00
        0.12    101323.59     20.00
        0.10    101323.83     20.00
        0.08    101324.06     20.00
        0.06    101324.30     20.00
        0.04    101324.53     20.00
        0.02    101324.76     20.00
       -0.00    101325.00     20.00
       -0.02    101325.23     20.00
       -0.04    101325.47     20.00


 Mass Fraction Transformation Matrix to Convert Species Mixtures (Columns) to Primitive Species (Rows)

                         AIR       METHANOL  INTERMED  PRODUCTS
   NITROGEN              0.762470  0.000000  0.619236  0.660602
   OXYGEN                0.230997  0.000000  0.000000  0.000000
   CARBON DIOXIDE        0.000591  0.000000  0.000480  0.184016
   WATER VAPOR           0.005941  0.000000  0.216066  0.155382
   CARBON MONOXIDE       0.000000  0.000000  0.164218  0.000000
   SOOT                  0.000000  0.000000  0.000000  0.000000
   HYDROGEN              0.000000  0.000000  0.000000  0.000000
   HYDROGEN CYANIDE      0.000000  0.000000  0.000000  0.000000
   METHANOL              0.000000  1.000000  0.000000  0.000000


 Primitive Species Information

   NITROGEN
   Gas Species
   Molecular Weight (g/mol)                28.01340
   Ambient Density (kg/m^3)                1.165
           Enthalpy of Formation (J/kg)  0.000E+00

   OXYGEN
   Gas Species
   Molecular Weight (g/mol)                31.99880
   Ambient Density (kg/m^3)                1.330
           Enthalpy of Formation (J/kg)  0.000E+00

   CARBON DIOXIDE
   Gas Species
   Molecular Weight (g/mol)                44.00950
   Ambient Density (kg/m^3)                1.830
           Enthalpy of Formation (J/kg) -8.941E+06

   WATER VAPOR
   Gas Species
   Molecular Weight (g/mol)                18.01528
   Ambient Density (kg/m^3)                0.749
           Enthalpy of Formation (J/kg) -1.342E+07

   CARBON MONOXIDE
   Gas Species
   Molecular Weight (g/mol)                28.01010
   Ambient Density (kg/m^3)                1.164
           Enthalpy of Formation (J/kg) -3.946E+06

   SOOT
   Gas Species
   Molecular Weight (g/mol)                12.01070
   Ambient Density (kg/m^3)                0.499
           Enthalpy of Formation (J/kg)  0.000E+00

   HYDROGEN
   Gas Species
   Molecular Weight (g/mol)                 2.01588
   Ambient Density (kg/m^3)                0.084
           Enthalpy of Formation (J/kg)  0.000E+00

   HYDROGEN CYANIDE
   Gas Species
   Molecular Weight (g/mol)                27.02534
   Ambient Density (kg/m^3)                1.123
           Enthalpy of Formation (J/kg)  4.924E+06

   METHANOL
   Gas Species
   Molecular Weight (g/mol)                32.04186
   Ambient Density (kg/m^3)                1.332
           Enthalpy of Formation (J/kg) -6.271E+06


 Tracked (Lumped) Species Information

   AIR
   Molecular Weight (g/mol)            28.75198
   Ambient Density (kg/m^3)            1.195
   Initial Mass Fraction               1.000
   Enthalpy of Formation (J/kg)     -8.504E+04

   Sub Species                    Mass Fraction     Mole Fraction
   NITROGEN                       7.624699E-01      7.825727E-01
   OXYGEN                         2.309974E-01      2.075588E-01
   CARBON DIOXIDE                 5.914650E-04      3.864118E-04
   WATER VAPOR                    5.941209E-03      9.482037E-03
 
     Viscosity (kg/m/s) Ambient,  293 K:  1.796E-05
                                  500 K:  2.612E-05
                                 1000 K:  4.125E-05
                                 1500 K:  5.371E-05
                                 2000 K:  6.476E-05
   Therm. Cond. (W/m/K) Ambient,  293 K:  2.556E-02
                                  500 K:  3.814E-02
                                 1000 K:  6.686E-02
                                 1500 K:  9.249E-02
                                 2000 K:  1.153E-01
        Enthalpy (J/kg) Ambient,  293 K: -9.012E+04
                                  500 K:  1.222E+05
                                 1000 K:  6.721E+05
                                 1500 K:  1.270E+06
                                 2000 K:  1.896E+06
    Spec. Heat (J/kg/K) Ambient,  293 K:  1.016E+03
                                  500 K:  1.042E+03
                                 1000 K:  1.156E+03
                                 1500 K:  1.229E+03
                                 2000 K:  1.270E+03
   Diff. Coeff. (m^2/s) Ambient,  293 K:  1.991E-05
                                  500 K:  4.961E-05
                                 1000 K:  1.580E-04
                                 1500 K:  3.095E-04
                                 2000 K:  4.984E-04
 Gibbs Energy Amb. (kJ/mol),  293 K: -5.873E+01
                                  500 K: -1.007E+02
                                 1000 K: -2.117E+02
                                 1500 K: -3.312E+02
                                 2000 K: -4.568E+02

   METHANOL
   Molecular Weight (g/mol)            32.04186
   Ambient Density (kg/m^3)            1.332
   Initial Mass Fraction               0.000
   Enthalpy of Formation (J/kg)     -6.271E+06

   Sub Species                    Mass Fraction     Mole Fraction
   METHANOL                       1.000000E+00      1.000000E+00
 
     Viscosity (kg/m/s) Ambient,  293 K:  9.505E-06
                                  500 K:  1.644E-05
                                 1000 K:  3.130E-05
                                 1500 K:  4.324E-05
                                 2000 K:  5.347E-05
   Therm. Cond. (W/m/K) Ambient,  293 K:  1.365E-02
                                  500 K:  3.224E-02
                                 1000 K:  9.206E-02
                                 1500 K:  1.497E-01
                                 2000 K:  2.000E-01
        Enthalpy (J/kg) Ambient,  293 K: -6.278E+06
                                  500 K: -5.946E+06
                                 1000 K: -4.758E+06
                                 1500 K: -3.224E+06
                                 2000 K: -1.507E+06
    Spec. Heat (J/kg/K) Ambient,  293 K:  1.364E+03
                                  500 K:  1.863E+03
                                 1000 K:  2.794E+03
                                 1500 K:  3.289E+03
                                 2000 K:  3.553E+03
   Diff. Coeff. (m^2/s) Ambient,  293 K:  1.508E-05
                                  500 K:  4.034E-05
                                 1000 K:  1.345E-04
                                 1500 K:  2.667E-04
                                 2000 K:  4.310E-04
 Gibbs Energy Amb. (kJ/mol),  293 K: -2.712E+02
                                  500 K: -3.236E+02
                                 1000 K: -4.702E+02
                                 1500 K: -6.394E+02
                                 2000 K: -8.262E+02

   INTERMEDIATE PRODUCTS
   Molecular Weight (g/mol)            25.01739
   Ambient Density (kg/m^3)            1.040
   Initial Mass Fraction               0.000
   Enthalpy of Formation (J/kg)     -3.553E+06

   Sub Species                    Mass Fraction     Mole Fraction
   NITROGEN                       6.192356E-01      5.530090E-01
   CARBON DIOXIDE                 4.803549E-04      2.730599E-04
   WATER VAPOR                    2.160658E-01      3.000455E-01
   CARBON MONOXIDE                1.642182E-01      1.466725E-01
   SOOT                           0.000000E+00      0.000000E+00
   HYDROGEN                       0.000000E+00      0.000000E+00
   HYDROGEN CYANIDE               0.000000E+00      0.000000E+00
 
     Viscosity (kg/m/s) Ambient,  293 K:  1.563E-05
                                  500 K:  2.328E-05
                                 1000 K:  3.867E-05
                                 1500 K:  5.171E-05
                                 2000 K:  6.319E-05
   Therm. Cond. (W/m/K) Ambient,  293 K:  2.386E-02
                                  500 K:  3.661E-02
                                 1000 K:  6.938E-02
                                 1500 K:  1.020E-01
                                 2000 K:  1.319E-01
        Enthalpy (J/kg) Ambient,  293 K: -3.559E+06
                                  500 K: -3.304E+06
                                 1000 K: -2.639E+06
                                 1500 K: -1.897E+06
                                 2000 K: -1.102E+06
    Spec. Heat (J/kg/K) Ambient,  293 K:  1.218E+03
                                  500 K:  1.252E+03
                                 1000 K:  1.413E+03
                                 1500 K:  1.545E+03
                                 2000 K:  1.629E+03
   Diff. Coeff. (m^2/s) Ambient,  293 K:  2.018E-05
                                  500 K:  5.190E-05
                                 1000 K:  1.692E-04
                                 1500 K:  3.337E-04
                                 2000 K:  5.389E-04
 Gibbs Energy Amb. (kJ/mol),  293 K: -1.269E+02
                                  500 K: -1.683E+02
                                 1000 K: -2.783E+02
                                 1500 K: -3.973E+02
                                 2000 K: -5.226E+02

   PRODUCTS
   Molecular Weight (g/mol)            27.48164
   Ambient Density (kg/m^3)            1.142
   Initial Mass Fraction               0.000
   Enthalpy of Formation (J/kg)     -3.731E+06

   Sub Species                    Mass Fraction     Mole Fraction
   NITROGEN                       6.606015E-01      6.480618E-01
   CARBON DIOXIDE                 1.840164E-01      1.149087E-01
   WATER VAPOR                    1.553821E-01      2.370296E-01
   CARBON MONOXIDE                0.000000E+00      0.000000E+00
   SOOT                           0.000000E+00      0.000000E+00
   HYDROGEN CYANIDE               0.000000E+00      0.000000E+00
 
     Viscosity (kg/m/s) Ambient,  293 K:  1.569E-05
                                  500 K:  2.344E-05
                                 1000 K:  3.873E-05
                                 1500 K:  5.150E-05
                                 2000 K:  6.274E-05
   Therm. Cond. (W/m/K) Ambient,  293 K:  2.304E-02
                                  500 K:  3.600E-02
                                 1000 K:  6.817E-02
                                 1500 K:  9.916E-02
                                 2000 K:  1.273E-01
        Enthalpy (J/kg) Ambient,  293 K: -3.737E+06
                                  500 K: -3.497E+06
                                 1000 K: -2.861E+06
                                 1500 K: -2.152E+06
                                 2000 K: -1.395E+06
    Spec. Heat (J/kg/K) Ambient,  293 K:  1.131E+03
                                  500 K:  1.188E+03
                                 1000 K:  1.354E+03
                                 1500 K:  1.474E+03
                                 2000 K:  1.547E+03
   Diff. Coeff. (m^2/s) Ambient,  293 K:  1.958E-05
                                  500 K:  5.013E-05
                                 1000 K:  1.629E-04
                                 1500 K:  3.209E-04
                                 2000 K:  5.180E-04
 Gibbs Energy Amb. (kJ/mol),  293 K: -1.672E+02
                                  500 K: -2.094E+02
                                 1000 K: -3.221E+02
                                 1500 K: -4.445E+02
                                 2000 K: -5.739E+02


 Gas Phase Reaction Information

   Reaction 1

      Priority:                                                               1

      Fuel                                           Heat of Combustion (kJ/kg)
      METHANOL                                                       12272.9204
      2-step reaction,  Total Heat of Combustion                     21104.3304

      Primitive Species Stoich. Coeff.
      Species ID                                                          Molar
      OXYGEN                                                          -1.000000
      WATER VAPOR                                                      2.000000
      CARBON MONOXIDE                                                  1.000000
      METHANOL                                                        -1.000000

      Tracked (Lumped) Species Stoich. Coeff.
      Species ID                                             Molar         Mass
      AIR                                                -4.817911    -4.323236
      METHANOL                                           -1.000000    -1.000000
      INTERMEDIATE PRODUCTS                               6.817911     5.323236

      Reaction Kinetics

      Fast chemistry

      ODE Solver:  EXPLICIT EULER

      Extinction Model:  EXTINCTION 2
      Auto-Ignition Temperature (C):            -273.1
      Critical Flame Temperature (C):           1257.0

      Prescribed Radiative Fraction:             0.220

   Reaction 2

      Priority:                                                               2

      Fuel                                           Heat of Combustion (kJ/kg)
      INTERMEDIATE PRODUCTS                                           1659.0305

      Primitive Species Stoich. Coeff.
      Species ID                                                          Molar
      OXYGEN                                                          -0.073336
      CARBON DIOXIDE                                                   0.146672
      CARBON MONOXIDE                                                 -0.146672

      Tracked (Lumped) Species Stoich. Coeff.
      Species ID                                             Molar         Mass
      AIR                                                -0.353328    -0.406072
      INTERMEDIATE PRODUCTS                              -1.000000    -1.000000
      PRODUCTS                                            1.279991     1.406072

      Reaction Kinetics

      Fast chemistry

      ODE Solver:  EXPLICIT EULER

      Prescribed Radiative Fraction:             0.220


 Material Information

   1 STEEL
     Emissivity:                                  0.800
     Density (kg/m3):                            7800.0
     Specific Heat (kJ/kg/K) Ambient,  293 K:  4.650E-01
                                       350 K:  4.650E-01
                                       500 K:  4.650E-01
                                       800 K:  4.650E-01
     Therm. Cond. (W/m/K) Ambient,     293 K:  5.400E+01
                                       350 K:  5.400E+01
                                       500 K:  5.400E+01
                                       800 K:  5.400E+01
     Enthalpy (kJ/kg) Ambient,         293 K:  1.362E+02
                                       350 K:  1.628E+02
                                       500 K:  2.325E+02
                                       800 K:  3.720E+02


 Surface Conditions

   0 INERT (DEFAULT)

   1 PAN
     Material List
          1  STEEL
     Layer  1
        Thickness   (m):  0.00300
        Density (kg/m3):  7800.00
        STEEL, Mass fraction:    1.00
     Reaction products considered from the first  0.50 layers.
     Total surface density    23.400 kg/m2
     Solid Phase Node, Layer, Coordinates(m):
                    0      1       0.0000000
                    1      1       0.0030000
     Exposed Backing

   2 POOL
     Wall or Vent Temperature (C)    64.6
     METHANOL Mass Flux (kg/s/m2)   1.465E-02

   3 OPEN
     Passive Vent to Atmosphere

   4 MIRROR
     Symmetry Plane

   5 INTERPOLATED

   6 PERIODIC

   7 HVAC

   8 MASSLESS TRACER

   9 DROPLET

  10 MASSLESS TARGET

  11 PERIODIC FLOW ONLY


 Lagrangian Particle Classes


 PROPerty Information

   1 TC
     Smokeview ID                sensor


 Cut-off Density and Temperature

    Minimum Temperature:  -259.1 C
    Maximum Temperature:  2726.8 C
    Minimum Density:  1.195E-01 kg/m3
    Maximum Density:  5.578E+01 kg/m3


 Device Information

   1 ID: Up2
     QUANTITY: RADIAL VELOCITY
     Coordinates (X,Y,Z):   -4.000000E-02   -2.000000E-04    2.000000E-02
     TEMPORAL STATISTIC: RUNNING AVERAGE
   2 ID: Up2
     QUANTITY: RADIAL VELOCITY
     Coordinates (X,Y,Z):   -3.000000E-02   -2.000000E-04    2.000000E-02
     TEMPORAL STATISTIC: RUNNING AVERAGE
   3 ID: Up2
     QUANTITY: RADIAL VELOCITY
     Coordinates (X,Y,Z):   -2.000000E-02   -2.000000E-04    2.000000E-02
     TEMPORAL STATISTIC: RUNNING AVERAGE
   4 ID: Up2
     QUANTITY: RADIAL VELOCITY
     Coordinates (X,Y,Z):   -1.000000E-02   -2.000000E-04    2.000000E-02
     TEMPORAL STATISTIC: RUNNING AVERAGE
   5 ID: Up2
     QUANTITY: RADIAL VELOCITY
     Coordinates (X,Y,Z):   -2.000000E-04   -2.000000E-04    2.000000E-02
     TEMPORAL STATISTIC: RUNNING AVERAGE
   6 ID: Up2
     QUANTITY: RADIAL VELOCITY
     Coordinates (X,Y,Z):    1.000000E-02   -2.000000E-04    2.000000E-02
     TEMPORAL STATISTIC: RUNNING AVERAGE
   7 ID: Up2
     QUANTITY: RADIAL VELOCITY
     Coordinates (X,Y,Z):    2.000000E-02   -2.000000E-04    2.000000E-02
     TEMPORAL STATISTIC: RUNNING AVERAGE
   8 ID: Up2
     QUANTITY: RADIAL VELOCITY
     Coordinates (X,Y,Z):    3.000000E-02   -2.000000E-04    2.000000E-02
     TEMPORAL STATISTIC: RUNNING AVERAGE
   9 ID: Up2
     QUANTITY: RADIAL VELOCITY
     Coordinates (X,Y,Z):    4.000000E-02   -2.000000E-04    2.000000E-02
     TEMPORAL STATISTIC: RUNNING AVERAGE
  10 ID: Up2
     QUANTITY: RADIAL VELOCITY
     Coordinates (X,Y,Z):    5.000000E-02   -2.000000E-04    2.000000E-02
     TEMPORAL STATISTIC: RUNNING AVERAGE
  11 ID: Up2
     QUANTITY: RADIAL VELOCITY
     Coordinates (X,Y,Z):    6.000000E-02   -2.000000E-04    2.000000E-02
     TEMPORAL STATISTIC: RUNNING AVERAGE
  12 ID: Up2
     QUANTITY: RADIAL VELOCITY
     Coordinates (X,Y,Z):    7.000000E-02   -2.000000E-04    2.000000E-02
     TEMPORAL STATISTIC: RUNNING AVERAGE
  13 ID: Up2
     QUANTITY: RADIAL VELOCITY
     Coordinates (X,Y,Z):    8.000000E-02   -2.000000E-04    2.000000E-02
     TEMPORAL STATISTIC: RUNNING AVERAGE
  14 ID: Up2
     QUANTITY: RADIAL VELOCITY
     Coordinates (X,Y,Z):    9.000000E-02   -2.000000E-04    2.000000E-02
     TEMPORAL STATISTIC: RUNNING AVERAGE
  15 ID: Up2
     QUANTITY: RADIAL VELOCITY
     Coordinates (X,Y,Z):    1.000000E-01   -2.000000E-04    2.000000E-02
     TEMPORAL STATISTIC: RUNNING AVERAGE
  16 ID: Up2
     QUANTITY: RADIAL VELOCITY
     Coordinates (X,Y,Z):    1.100000E-01   -2.000000E-04    2.000000E-02
     TEMPORAL STATISTIC: RUNNING AVERAGE
  17 ID: Up2
     QUANTITY: RADIAL VELOCITY
     Coordinates (X,Y,Z):    1.200000E-01   -2.000000E-04    2.000000E-02
     TEMPORAL STATISTIC: RUNNING AVERAGE
  18 ID: Up2
     QUANTITY: RADIAL VELOCITY
     Coordinates (X,Y,Z):    1.300000E-01   -2.000000E-04    2.000000E-02
     TEMPORAL STATISTIC: RUNNING AVERAGE
  19 ID: Up2
     QUANTITY: RADIAL VELOCITY
     Coordinates (X,Y,Z):    1.400000E-01   -2.000000E-04    2.000000E-02
     TEMPORAL STATISTIC: RUNNING AVERAGE
  20 ID: Up2
     QUANTITY: RADIAL VELOCITY
     Coordinates (X,Y,Z):    1.500000E-01   -2.000000E-04    2.000000E-02
     TEMPORAL STATISTIC: RUNNING AVERAGE
  21 ID: Up2
     QUANTITY: RADIAL VELOCITY
     Coordinates (X,Y,Z):    1.600000E-01   -2.000000E-04    2.000000E-02
     TEMPORAL STATISTIC: RUNNING AVERAGE
  22 ID: Up4
     QUANTITY: RADIAL VELOCITY
     Coordinates (X,Y,Z):   -4.000000E-02   -2.000000E-04    4.000000E-02
     TEMPORAL STATISTIC: RUNNING AVERAGE
  23 ID: Up4
     QUANTITY: RADIAL VELOCITY
     Coordinates (X,Y,Z):   -3.000000E-02   -2.000000E-04    4.000000E-02
     TEMPORAL STATISTIC: RUNNING AVERAGE
  24 ID: Up4
     QUANTITY: RADIAL VELOCITY
     Coordinates (X,Y,Z):   -2.000000E-02   -2.000000E-04    4.000000E-02
     TEMPORAL STATISTIC: RUNNING AVERAGE
  25 ID: Up4
     QUANTITY: RADIAL VELOCITY
     Coordinates (X,Y,Z):   -1.000000E-02   -2.000000E-04    4.000000E-02
     TEMPORAL STATISTIC: RUNNING AVERAGE
  26 ID: Up4
     QUANTITY: RADIAL VELOCITY
     Coordinates (X,Y,Z):   -2.000000E-04   -2.000000E-04    4.000000E-02
     TEMPORAL STATISTIC: RUNNING AVERAGE
  27 ID: Up4
     QUANTITY: RADIAL VELOCITY
     Coordinates (X,Y,Z):    1.000000E-02   -2.000000E-04    4.000000E-02
     TEMPORAL STATISTIC: RUNNING AVERAGE
  28 ID: Up4
     QUANTITY: RADIAL VELOCITY
     Coordinates (X,Y,Z):    2.000000E-02   -2.000000E-04    4.000000E-02
     TEMPORAL STATISTIC: RUNNING AVERAGE
  29 ID: Up4
     QUANTITY: RADIAL VELOCITY
     Coordinates (X,Y,Z):    3.000000E-02   -2.000000E-04    4.000000E-02
     TEMPORAL STATISTIC: RUNNING AVERAGE
  30 ID: Up4
     QUANTITY: RADIAL VELOCITY
     Coordinates (X,Y,Z):    4.000000E-02   -2.000000E-04    4.000000E-02
     TEMPORAL STATISTIC: RUNNING AVERAGE
  31 ID: Up4
     QUANTITY: RADIAL VELOCITY
     Coordinates (X,Y,Z):    5.000000E-02   -2.000000E-04    4.000000E-02
     TEMPORAL STATISTIC: RUNNING AVERAGE
  32 ID: Up4
     QUANTITY: RADIAL VELOCITY
     Coordinates (X,Y,Z):    6.000000E-02   -2.000000E-04    4.000000E-02
     TEMPORAL STATISTIC: RUNNING AVERAGE
  33 ID: Up4
     QUANTITY: RADIAL VELOCITY
     Coordinates (X,Y,Z):    7.000000E-02   -2.000000E-04    4.000000E-02
     TEMPORAL STATISTIC: RUNNING AVERAGE
  34 ID: Up4
     QUANTITY: RADIAL VELOCITY
     Coordinates (X,Y,Z):    8.000000E-02   -2.000000E-04    4.000000E-02
     TEMPORAL STATISTIC: RUNNING AVERAGE
  35 ID: Up4
     QUANTITY: RADIAL VELOCITY
     Coordinates (X,Y,Z):    9.000000E-02   -2.000000E-04    4.000000E-02
     TEMPORAL STATISTIC: RUNNING AVERAGE
  36 ID: Up4
     QUANTITY: RADIAL VELOCITY
     Coordinates (X,Y,Z):    1.000000E-01   -2.000000E-04    4.000000E-02
     TEMPORAL STATISTIC: RUNNING AVERAGE
  37 ID: Up4
     QUANTITY: RADIAL VELOCITY
     Coordinates (X,Y,Z):    1.100000E-01   -2.000000E-04    4.000000E-02
     TEMPORAL STATISTIC: RUNNING AVERAGE
  38 ID: Up4
     QUANTITY: RADIAL VELOCITY
     Coordinates (X,Y,Z):    1.200000E-01   -2.000000E-04    4.000000E-02
     TEMPORAL STATISTIC: RUNNING AVERAGE
  39 ID: Up4
     QUANTITY: RADIAL VELOCITY
     Coordinates (X,Y,Z):    1.300000E-01   -2.000000E-04    4.000000E-02
     TEMPORAL STATISTIC: RUNNING AVERAGE
  40 ID: Up4
     QUANTITY: RADIAL VELOCITY
     Coordinates (X,Y,Z):    1.400000E-01   -2.000000E-04    4.000000E-02
     TEMPORAL STATISTIC: RUNNING AVERAGE
  41 ID: Up4
     QUANTITY: RADIAL VELOCITY
     Coordinates (X,Y,Z):    1.500000E-01   -2.000000E-04    4.000000E-02
     TEMPORAL STATISTIC: RUNNING AVERAGE
  42 ID: Up4
     QUANTITY: RADIAL VELOCITY
     Coordinates (X,Y,Z):    1.600000E-01   -2.000000E-04    4.000000E-02
     TEMPORAL STATISTIC: RUNNING AVERAGE
  43 ID: Up6
     QUANTITY: RADIAL VELOCITY
     Coordinates (X,Y,Z):   -4.000000E-02   -2.000000E-04    6.000000E-02
     TEMPORAL STATISTIC: RUNNING AVERAGE
  44 ID: Up6
     QUANTITY: RADIAL VELOCITY
     Coordinates (X,Y,Z):   -3.000000E-02   -2.000000E-04    6.000000E-02
     TEMPORAL STATISTIC: RUNNING AVERAGE
  45 ID: Up6
     QUANTITY: RADIAL VELOCITY
     Coordinates (X,Y,Z):   -2.000000E-02   -2.000000E-04    6.000000E-02
     TEMPORAL STATISTIC: RUNNING AVERAGE
  46 ID: Up6
     QUANTITY: RADIAL VELOCITY
     Coordinates (X,Y,Z):   -1.000000E-02   -2.000000E-04    6.000000E-02
     TEMPORAL STATISTIC: RUNNING AVERAGE
  47 ID: Up6
     QUANTITY: RADIAL VELOCITY
     Coordinates (X,Y,Z):   -2.000000E-04   -2.000000E-04    6.000000E-02
     TEMPORAL STATISTIC: RUNNING AVERAGE
  48 ID: Up6
     QUANTITY: RADIAL VELOCITY
     Coordinates (X,Y,Z):    1.000000E-02   -2.000000E-04    6.000000E-02
     TEMPORAL STATISTIC: RUNNING AVERAGE
  49 ID: Up6
     QUANTITY: RADIAL VELOCITY
     Coordinates (X,Y,Z):    2.000000E-02   -2.000000E-04    6.000000E-02
     TEMPORAL STATISTIC: RUNNING AVERAGE
  50 ID: Up6
     QUANTITY: RADIAL VELOCITY
     Coordinates (X,Y,Z):    3.000000E-02   -2.000000E-04    6.000000E-02
     TEMPORAL STATISTIC: RUNNING AVERAGE
  51 ID: Up6
     QUANTITY: RADIAL VELOCITY
     Coordinates (X,Y,Z):    4.000000E-02   -2.000000E-04    6.000000E-02
     TEMPORAL STATISTIC: RUNNING AVERAGE
  52 ID: Up6
     QUANTITY: RADIAL VELOCITY
     Coordinates (X,Y,Z):    5.000000E-02   -2.000000E-04    6.000000E-02
     TEMPORAL STATISTIC: RUNNING AVERAGE
  53 ID: Up6
     QUANTITY: RADIAL VELOCITY
     Coordinates (X,Y,Z):    6.000000E-02   -2.000000E-04    6.000000E-02
     TEMPORAL STATISTIC: RUNNING AVERAGE
  54 ID: Up6
     QUANTITY: RADIAL VELOCITY
     Coordinates (X,Y,Z):    7.000000E-02   -2.000000E-04    6.000000E-02
     TEMPORAL STATISTIC: RUNNING AVERAGE
  55 ID: Up6
     QUANTITY: RADIAL VELOCITY
     Coordinates (X,Y,Z):    8.000000E-02   -2.000000E-04    6.000000E-02
     TEMPORAL STATISTIC: RUNNING AVERAGE
  56 ID: Up6
     QUANTITY: RADIAL VELOCITY
     Coordinates (X,Y,Z):    9.000000E-02   -2.000000E-04    6.000000E-02
     TEMPORAL STATISTIC: RUNNING AVERAGE
  57 ID: Up6
     QUANTITY: RADIAL VELOCITY
     Coordinates (X,Y,Z):    1.000000E-01   -2.000000E-04    6.000000E-02
     TEMPORAL STATISTIC: RUNNING AVERAGE
  58 ID: Up6
     QUANTITY: RADIAL VELOCITY
     Coordinates (X,Y,Z):    1.100000E-01   -2.000000E-04    6.000000E-02
     TEMPORAL STATISTIC: RUNNING AVERAGE
  59 ID: Up6
     QUANTITY: RADIAL VELOCITY
     Coordinates (X,Y,Z):    1.200000E-01   -2.000000E-04    6.000000E-02
     TEMPORAL STATISTIC: RUNNING AVERAGE
  60 ID: Up6
     QUANTITY: RADIAL VELOCITY
     Coordinates (X,Y,Z):    1.300000E-01   -2.000000E-04    6.000000E-02
     TEMPORAL STATISTIC: RUNNING AVERAGE
  61 ID: Up6
     QUANTITY: RADIAL VELOCITY
     Coordinates (X,Y,Z):    1.400000E-01   -2.000000E-04    6.000000E-02
     TEMPORAL STATISTIC: RUNNING AVERAGE
  62 ID: Up6
     QUANTITY: RADIAL VELOCITY
     Coordinates (X,Y,Z):    1.500000E-01   -2.000000E-04    6.000000E-02
     TEMPORAL STATISTIC: RUNNING AVERAGE
  63 ID: Up6
     QUANTITY: RADIAL VELOCITY
     Coordinates (X,Y,Z):    1.600000E-01   -2.000000E-04    6.000000E-02
     TEMPORAL STATISTIC: RUNNING AVERAGE
  64 ID: Up8
     QUANTITY: RADIAL VELOCITY
     Coordinates (X,Y,Z):   -4.000000E-02   -2.000000E-04    8.000000E-02
     TEMPORAL STATISTIC: RUNNING AVERAGE
  65 ID: Up8
     QUANTITY: RADIAL VELOCITY
     Coordinates (X,Y,Z):   -3.000000E-02   -2.000000E-04    8.000000E-02
     TEMPORAL STATISTIC: RUNNING AVERAGE
  66 ID: Up8
     QUANTITY: RADIAL VELOCITY
     Coordinates (X,Y,Z):   -2.000000E-02   -2.000000E-04    8.000000E-02
     TEMPORAL STATISTIC: RUNNING AVERAGE
  67 ID: Up8
     QUANTITY: RADIAL VELOCITY
     Coordinates (X,Y,Z):   -1.000000E-02   -2.000000E-04    8.000000E-02
     TEMPORAL STATISTIC: RUNNING AVERAGE
  68 ID: Up8
     QUANTITY: RADIAL VELOCITY
     Coordinates (X,Y,Z):   -2.000000E-04   -2.000000E-04    8.000000E-02
     TEMPORAL STATISTIC: RUNNING AVERAGE
  69 ID: Up8
     QUANTITY: RADIAL VELOCITY
     Coordinates (X,Y,Z):    1.000000E-02   -2.000000E-04    8.000000E-02
     TEMPORAL STATISTIC: RUNNING AVERAGE
  70 ID: Up8
     QUANTITY: RADIAL VELOCITY
     Coordinates (X,Y,Z):    2.000000E-02   -2.000000E-04    8.000000E-02
     TEMPORAL STATISTIC: RUNNING AVERAGE
  71 ID: Up8
     QUANTITY: RADIAL VELOCITY
     Coordinates (X,Y,Z):    3.000000E-02   -2.000000E-04    8.000000E-02
     TEMPORAL STATISTIC: RUNNING AVERAGE
  72 ID: Up8
     QUANTITY: RADIAL VELOCITY
     Coordinates (X,Y,Z):    4.000000E-02   -2.000000E-04    8.000000E-02
     TEMPORAL STATISTIC: RUNNING AVERAGE
  73 ID: Up8
     QUANTITY: RADIAL VELOCITY
     Coordinates (X,Y,Z):    5.000000E-02   -2.000000E-04    8.000000E-02
     TEMPORAL STATISTIC: RUNNING AVERAGE
  74 ID: Up8
     QUANTITY: RADIAL VELOCITY
     Coordinates (X,Y,Z):    6.000000E-02   -2.000000E-04    8.000000E-02
     TEMPORAL STATISTIC: RUNNING AVERAGE
  75 ID: Up8
     QUANTITY: RADIAL VELOCITY
     Coordinates (X,Y,Z):    7.000000E-02   -2.000000E-04    8.000000E-02
     TEMPORAL STATISTIC: RUNNING AVERAGE
  76 ID: Up8
     QUANTITY: RADIAL VELOCITY
     Coordinates (X,Y,Z):    8.000000E-02   -2.000000E-04    8.000000E-02
     TEMPORAL STATISTIC: RUNNING AVERAGE
  77 ID: Up8
     QUANTITY: RADIAL VELOCITY
     Coordinates (X,Y,Z):    9.000000E-02   -2.000000E-04    8.000000E-02
     TEMPORAL STATISTIC: RUNNING AVERAGE
  78 ID: Up8
     QUANTITY: RADIAL VELOCITY
     Coordinates (X,Y,Z):    1.000000E-01   -2.000000E-04    8.000000E-02
     TEMPORAL STATISTIC: RUNNING AVERAGE
  79 ID: Up8
     QUANTITY: RADIAL VELOCITY
     Coordinates (X,Y,Z):    1.100000E-01   -2.000000E-04    8.000000E-02
     TEMPORAL STATISTIC: RUNNING AVERAGE
  80 ID: Up8
     QUANTITY: RADIAL VELOCITY
     Coordinates (X,Y,Z):    1.200000E-01   -2.000000E-04    8.000000E-02
     TEMPORAL STATISTIC: RUNNING AVERAGE
  81 ID: Up8
     QUANTITY: RADIAL VELOCITY
     Coordinates (X,Y,Z):    1.300000E-01   -2.000000E-04    8.000000E-02
     TEMPORAL STATISTIC: RUNNING AVERAGE
  82 ID: Up8
     QUANTITY: RADIAL VELOCITY
     Coordinates (X,Y,Z):    1.400000E-01   -2.000000E-04    8.000000E-02
     TEMPORAL STATISTIC: RUNNING AVERAGE
  83 ID: Up8
     QUANTITY: RADIAL VELOCITY
     Coordinates (X,Y,Z):    1.500000E-01   -2.000000E-04    8.000000E-02
     TEMPORAL STATISTIC: RUNNING AVERAGE
  84 ID: Up8
     QUANTITY: RADIAL VELOCITY
     Coordinates (X,Y,Z):    1.600000E-01   -2.000000E-04    8.000000E-02
     TEMPORAL STATISTIC: RUNNING AVERAGE
  85 ID: Up10
     QUANTITY: RADIAL VELOCITY
     Coordinates (X,Y,Z):   -4.000000E-02   -2.000000E-04    1.000000E-01
     TEMPORAL STATISTIC: RUNNING AVERAGE
  86 ID: Up10
     QUANTITY: RADIAL VELOCITY
     Coordinates (X,Y,Z):   -3.000000E-02   -2.000000E-04    1.000000E-01
     TEMPORAL STATISTIC: RUNNING AVERAGE
  87 ID: Up10
     QUANTITY: RADIAL VELOCITY
     Coordinates (X,Y,Z):   -2.000000E-02   -2.000000E-04    1.000000E-01
     TEMPORAL STATISTIC: RUNNING AVERAGE
  88 ID: Up10
     QUANTITY: RADIAL VELOCITY
     Coordinates (X,Y,Z):   -1.000000E-02   -2.000000E-04    1.000000E-01
     TEMPORAL STATISTIC: RUNNING AVERAGE
  89 ID: Up10
     QUANTITY: RADIAL VELOCITY
     Coordinates (X,Y,Z):   -2.000000E-04   -2.000000E-04    1.000000E-01
     TEMPORAL STATISTIC: RUNNING AVERAGE
  90 ID: Up10
     QUANTITY: RADIAL VELOCITY
     Coordinates (X,Y,Z):    1.000000E-02   -2.000000E-04    1.000000E-01
     TEMPORAL STATISTIC: RUNNING AVERAGE
  91 ID: Up10
     QUANTITY: RADIAL VELOCITY
     Coordinates (X,Y,Z):    2.000000E-02   -2.000000E-04    1.000000E-01
     TEMPORAL STATISTIC: RUNNING AVERAGE
  92 ID: Up10
     QUANTITY: RADIAL VELOCITY
     Coordinates (X,Y,Z):    3.000000E-02   -2.000000E-04    1.000000E-01
     TEMPORAL STATISTIC: RUNNING AVERAGE
  93 ID: Up10
     QUANTITY: RADIAL VELOCITY
     Coordinates (X,Y,Z):    4.000000E-02   -2.000000E-04    1.000000E-01
     TEMPORAL STATISTIC: RUNNING AVERAGE
  94 ID: Up10
     QUANTITY: RADIAL VELOCITY
     Coordinates (X,Y,Z):    5.000000E-02   -2.000000E-04    1.000000E-01
     TEMPORAL STATISTIC: RUNNING AVERAGE
  95 ID: Up10
     QUANTITY: RADIAL VELOCITY
     Coordinates (X,Y,Z):    6.000000E-02   -2.000000E-04    1.000000E-01
     TEMPORAL STATISTIC: RUNNING AVERAGE
  96 ID: Up10
     QUANTITY: RADIAL VELOCITY
     Coordinates (X,Y,Z):    7.000000E-02   -2.000000E-04    1.000000E-01
     TEMPORAL STATISTIC: RUNNING AVERAGE
  97 ID: Up10
     QUANTITY: RADIAL VELOCITY
     Coordinates (X,Y,Z):    8.000000E-02   -2.000000E-04    1.000000E-01
     TEMPORAL STATISTIC: RUNNING AVERAGE
  98 ID: Up10
     QUANTITY: RADIAL VELOCITY
     Coordinates (X,Y,Z):    9.000000E-02   -2.000000E-04    1.000000E-01
     TEMPORAL STATISTIC: RUNNING AVERAGE
  99 ID: Up10
     QUANTITY: RADIAL VELOCITY
     Coordinates (X,Y,Z):    1.000000E-01   -2.000000E-04    1.000000E-01
     TEMPORAL STATISTIC: RUNNING AVERAGE
 100 ID: Up10
     QUANTITY: RADIAL VELOCITY
     Coordinates (X,Y,Z):    1.100000E-01   -2.000000E-04    1.000000E-01
     TEMPORAL STATISTIC: RUNNING AVERAGE
 101 ID: Up10
     QUANTITY: RADIAL VELOCITY
     Coordinates (X,Y,Z):    1.200000E-01   -2.000000E-04    1.000000E-01
     TEMPORAL STATISTIC: RUNNING AVERAGE
 102 ID: Up10
     QUANTITY: RADIAL VELOCITY
     Coordinates (X,Y,Z):    1.300000E-01   -2.000000E-04    1.000000E-01
     TEMPORAL STATISTIC: RUNNING AVERAGE
 103 ID: Up10
     QUANTITY: RADIAL VELOCITY
     Coordinates (X,Y,Z):    1.400000E-01   -2.000000E-04    1.000000E-01
     TEMPORAL STATISTIC: RUNNING AVERAGE
 104 ID: Up10
     QUANTITY: RADIAL VELOCITY
     Coordinates (X,Y,Z):    1.500000E-01   -2.000000E-04    1.000000E-01
     TEMPORAL STATISTIC: RUNNING AVERAGE
 105 ID: Up10
     QUANTITY: RADIAL VELOCITY
     Coordinates (X,Y,Z):    1.600000E-01   -2.000000E-04    1.000000E-01
     TEMPORAL STATISTIC: RUNNING AVERAGE
 106 ID: Up12
     QUANTITY: RADIAL VELOCITY
     Coordinates (X,Y,Z):   -4.000000E-02   -2.000000E-04    1.200000E-01
     TEMPORAL STATISTIC: RUNNING AVERAGE
 107 ID: Up12
     QUANTITY: RADIAL VELOCITY
     Coordinates (X,Y,Z):   -3.000000E-02   -2.000000E-04    1.200000E-01
     TEMPORAL STATISTIC: RUNNING AVERAGE
 108 ID: Up12
     QUANTITY: RADIAL VELOCITY
     Coordinates (X,Y,Z):   -2.000000E-02   -2.000000E-04    1.200000E-01
     TEMPORAL STATISTIC: RUNNING AVERAGE
 109 ID: Up12
     QUANTITY: RADIAL VELOCITY
     Coordinates (X,Y,Z):   -1.000000E-02   -2.000000E-04    1.200000E-01
     TEMPORAL STATISTIC: RUNNING AVERAGE
 110 ID: Up12
     QUANTITY: RADIAL VELOCITY
     Coordinates (X,Y,Z):   -2.000000E-04   -2.000000E-04    1.200000E-01
     TEMPORAL STATISTIC: RUNNING AVERAGE
 111 ID: Up12
     QUANTITY: RADIAL VELOCITY
     Coordinates (X,Y,Z):    1.000000E-02   -2.000000E-04    1.200000E-01
     TEMPORAL STATISTIC: RUNNING AVERAGE
 112 ID: Up12
     QUANTITY: RADIAL VELOCITY
     Coordinates (X,Y,Z):    2.000000E-02   -2.000000E-04    1.200000E-01
     TEMPORAL STATISTIC: RUNNING AVERAGE
 113 ID: Up12
     QUANTITY: RADIAL VELOCITY
     Coordinates (X,Y,Z):    3.000000E-02   -2.000000E-04    1.200000E-01
     TEMPORAL STATISTIC: RUNNING AVERAGE
 114 ID: Up12
     QUANTITY: RADIAL VELOCITY
     Coordinates (X,Y,Z):    4.000000E-02   -2.000000E-04    1.200000E-01
     TEMPORAL STATISTIC: RUNNING AVERAGE
 115 ID: Up12
     QUANTITY: RADIAL VELOCITY
     Coordinates (X,Y,Z):    5.000000E-02   -2.000000E-04    1.200000E-01
     TEMPORAL STATISTIC: RUNNING AVERAGE
 116 ID: Up12
     QUANTITY: RADIAL VELOCITY
     Coordinates (X,Y,Z):    6.000000E-02   -2.000000E-04    1.200000E-01
     TEMPORAL STATISTIC: RUNNING AVERAGE
 117 ID: Up12
     QUANTITY: RADIAL VELOCITY
     Coordinates (X,Y,Z):    7.000000E-02   -2.000000E-04    1.200000E-01
     TEMPORAL STATISTIC: RUNNING AVERAGE
 118 ID: Up12
     QUANTITY: RADIAL VELOCITY
     Coordinates (X,Y,Z):    8.000000E-02   -2.000000E-04    1.200000E-01
     TEMPORAL STATISTIC: RUNNING AVERAGE
 119 ID: Up12
     QUANTITY: RADIAL VELOCITY
     Coordinates (X,Y,Z):    9.000000E-02   -2.000000E-04    1.200000E-01
     TEMPORAL STATISTIC: RUNNING AVERAGE
 120 ID: Up12
     QUANTITY: RADIAL VELOCITY
     Coordinates (X,Y,Z):    1.000000E-01   -2.000000E-04    1.200000E-01
     TEMPORAL STATISTIC: RUNNING AVERAGE
 121 ID: Up12
     QUANTITY: RADIAL VELOCITY
     Coordinates (X,Y,Z):    1.100000E-01   -2.000000E-04    1.200000E-01
     TEMPORAL STATISTIC: RUNNING AVERAGE
 122 ID: Up12
     QUANTITY: RADIAL VELOCITY
     Coordinates (X,Y,Z):    1.200000E-01   -2.000000E-04    1.200000E-01
     TEMPORAL STATISTIC: RUNNING AVERAGE
 123 ID: Up12
     QUANTITY: RADIAL VELOCITY
     Coordinates (X,Y,Z):    1.300000E-01   -2.000000E-04    1.200000E-01
     TEMPORAL STATISTIC: RUNNING AVERAGE
 124 ID: Up12
     QUANTITY: RADIAL VELOCITY
     Coordinates (X,Y,Z):    1.400000E-01   -2.000000E-04    1.200000E-01
     TEMPORAL STATISTIC: RUNNING AVERAGE
 125 ID: Up12
     QUANTITY: RADIAL VELOCITY
     Coordinates (X,Y,Z):    1.500000E-01   -2.000000E-04    1.200000E-01
     TEMPORAL STATISTIC: RUNNING AVERAGE
 126 ID: Up12
     QUANTITY: RADIAL VELOCITY
     Coordinates (X,Y,Z):    1.600000E-01   -2.000000E-04    1.200000E-01
     TEMPORAL STATISTIC: RUNNING AVERAGE
 127 ID: Up14
     QUANTITY: RADIAL VELOCITY
     Coordinates (X,Y,Z):   -4.000000E-02   -2.000000E-04    1.400000E-01
     TEMPORAL STATISTIC: RUNNING AVERAGE
 128 ID: Up14
     QUANTITY: RADIAL VELOCITY
     Coordinates (X,Y,Z):   -3.000000E-02   -2.000000E-04    1.400000E-01
     TEMPORAL STATISTIC: RUNNING AVERAGE
 129 ID: Up14
     QUANTITY: RADIAL VELOCITY
     Coordinates (X,Y,Z):   -2.000000E-02   -2.000000E-04    1.400000E-01
     TEMPORAL STATISTIC: RUNNING AVERAGE
 130 ID: Up14
     QUANTITY: RADIAL VELOCITY
     Coordinates (X,Y,Z):   -1.000000E-02   -2.000000E-04    1.400000E-01
     TEMPORAL STATISTIC: RUNNING AVERAGE
 131 ID: Up14
     QUANTITY: RADIAL VELOCITY
     Coordinates (X,Y,Z):   -2.000000E-04   -2.000000E-04    1.400000E-01
     TEMPORAL STATISTIC: RUNNING AVERAGE
 132 ID: Up14
     QUANTITY: RADIAL VELOCITY
     Coordinates (X,Y,Z):    1.000000E-02   -2.000000E-04    1.400000E-01
     TEMPORAL STATISTIC: RUNNING AVERAGE
 133 ID: Up14
     QUANTITY: RADIAL VELOCITY
     Coordinates (X,Y,Z):    2.000000E-02   -2.000000E-04    1.400000E-01
     TEMPORAL STATISTIC: RUNNING AVERAGE
 134 ID: Up14
     QUANTITY: RADIAL VELOCITY
     Coordinates (X,Y,Z):    3.000000E-02   -2.000000E-04    1.400000E-01
     TEMPORAL STATISTIC: RUNNING AVERAGE
 135 ID: Up14
     QUANTITY: RADIAL VELOCITY
     Coordinates (X,Y,Z):    4.000000E-02   -2.000000E-04    1.400000E-01
     TEMPORAL STATISTIC: RUNNING AVERAGE
 136 ID: Up14
     QUANTITY: RADIAL VELOCITY
     Coordinates (X,Y,Z):    5.000000E-02   -2.000000E-04    1.400000E-01
     TEMPORAL STATISTIC: RUNNING AVERAGE
 137 ID: Up14
     QUANTITY: RADIAL VELOCITY
     Coordinates (X,Y,Z):    6.000000E-02   -2.000000E-04    1.400000E-01
     TEMPORAL STATISTIC: RUNNING AVERAGE
 138 ID: Up14
     QUANTITY: RADIAL VELOCITY
     Coordinates (X,Y,Z):    7.000000E-02   -2.000000E-04    1.400000E-01
     TEMPORAL STATISTIC: RUNNING AVERAGE
 139 ID: Up14
     QUANTITY: RADIAL VELOCITY
     Coordinates (X,Y,Z):    8.000000E-02   -2.000000E-04    1.400000E-01
     TEMPORAL STATISTIC: RUNNING AVERAGE
 140 ID: Up14
     QUANTITY: RADIAL VELOCITY
     Coordinates (X,Y,Z):    9.000000E-02   -2.000000E-04    1.400000E-01
     TEMPORAL STATISTIC: RUNNING AVERAGE
 141 ID: Up14
     QUANTITY: RADIAL VELOCITY
     Coordinates (X,Y,Z):    1.000000E-01   -2.000000E-04    1.400000E-01
     TEMPORAL STATISTIC: RUNNING AVERAGE
 142 ID: Up14
     QUANTITY: RADIAL VELOCITY
     Coordinates (X,Y,Z):    1.100000E-01   -2.000000E-04    1.400000E-01
     TEMPORAL STATISTIC: RUNNING AVERAGE
 143 ID: Up14
     QUANTITY: RADIAL VELOCITY
     Coordinates (X,Y,Z):    1.200000E-01   -2.000000E-04    1.400000E-01
     TEMPORAL STATISTIC: RUNNING AVERAGE
 144 ID: Up14
     QUANTITY: RADIAL VELOCITY
     Coordinates (X,Y,Z):    1.300000E-01   -2.000000E-04    1.400000E-01
     TEMPORAL STATISTIC: RUNNING AVERAGE
 145 ID: Up14
     QUANTITY: RADIAL VELOCITY
     Coordinates (X,Y,Z):    1.400000E-01   -2.000000E-04    1.400000E-01
     TEMPORAL STATISTIC: RUNNING AVERAGE
 146 ID: Up14
     QUANTITY: RADIAL VELOCITY
     Coordinates (X,Y,Z):    1.500000E-01   -2.000000E-04    1.400000E-01
     TEMPORAL STATISTIC: RUNNING AVERAGE
 147 ID: Up14
     QUANTITY: RADIAL VELOCITY
     Coordinates (X,Y,Z):    1.600000E-01   -2.000000E-04    1.400000E-01
     TEMPORAL STATISTIC: RUNNING AVERAGE
 148 ID: Up16
     QUANTITY: RADIAL VELOCITY
     Coordinates (X,Y,Z):   -4.000000E-02   -2.000000E-04    1.600000E-01
     TEMPORAL STATISTIC: RUNNING AVERAGE
 149 ID: Up16
     QUANTITY: RADIAL VELOCITY
     Coordinates (X,Y,Z):   -3.000000E-02   -2.000000E-04    1.600000E-01
     TEMPORAL STATISTIC: RUNNING AVERAGE
 150 ID: Up16
     QUANTITY: RADIAL VELOCITY
     Coordinates (X,Y,Z):   -2.000000E-02   -2.000000E-04    1.600000E-01
     TEMPORAL STATISTIC: RUNNING AVERAGE
 151 ID: Up16
     QUANTITY: RADIAL VELOCITY
     Coordinates (X,Y,Z):   -1.000000E-02   -2.000000E-04    1.600000E-01
     TEMPORAL STATISTIC: RUNNING AVERAGE
 152 ID: Up16
     QUANTITY: RADIAL VELOCITY
     Coordinates (X,Y,Z):   -2.000000E-04   -2.000000E-04    1.600000E-01
     TEMPORAL STATISTIC: RUNNING AVERAGE
 153 ID: Up16
     QUANTITY: RADIAL VELOCITY
     Coordinates (X,Y,Z):    1.000000E-02   -2.000000E-04    1.600000E-01
     TEMPORAL STATISTIC: RUNNING AVERAGE
 154 ID: Up16
     QUANTITY: RADIAL VELOCITY
     Coordinates (X,Y,Z):    2.000000E-02   -2.000000E-04    1.600000E-01
     TEMPORAL STATISTIC: RUNNING AVERAGE
 155 ID: Up16
     QUANTITY: RADIAL VELOCITY
     Coordinates (X,Y,Z):    3.000000E-02   -2.000000E-04    1.600000E-01
     TEMPORAL STATISTIC: RUNNING AVERAGE
 156 ID: Up16
     QUANTITY: RADIAL VELOCITY
     Coordinates (X,Y,Z):    4.000000E-02   -2.000000E-04    1.600000E-01
     TEMPORAL STATISTIC: RUNNING AVERAGE
 157 ID: Up16
     QUANTITY: RADIAL VELOCITY
     Coordinates (X,Y,Z):    5.000000E-02   -2.000000E-04    1.600000E-01
     TEMPORAL STATISTIC: RUNNING AVERAGE
 158 ID: Up16
     QUANTITY: RADIAL VELOCITY
     Coordinates (X,Y,Z):    6.000000E-02   -2.000000E-04    1.600000E-01
     TEMPORAL STATISTIC: RUNNING AVERAGE
 159 ID: Up16
     QUANTITY: RADIAL VELOCITY
     Coordinates (X,Y,Z):    7.000000E-02   -2.000000E-04    1.600000E-01
     TEMPORAL STATISTIC: RUNNING AVERAGE
 160 ID: Up16
     QUANTITY: RADIAL VELOCITY
     Coordinates (X,Y,Z):    8.000000E-02   -2.000000E-04    1.600000E-01
     TEMPORAL STATISTIC: RUNNING AVERAGE
 161 ID: Up16
     QUANTITY: RADIAL VELOCITY
     Coordinates (X,Y,Z):    9.000000E-02   -2.000000E-04    1.600000E-01
     TEMPORAL STATISTIC: RUNNING AVERAGE
 162 ID: Up16
     QUANTITY: RADIAL VELOCITY
     Coordinates (X,Y,Z):    1.000000E-01   -2.000000E-04    1.600000E-01
     TEMPORAL STATISTIC: RUNNING AVERAGE
 163 ID: Up16
     QUANTITY: RADIAL VELOCITY
     Coordinates (X,Y,Z):    1.100000E-01   -2.000000E-04    1.600000E-01
     TEMPORAL STATISTIC: RUNNING AVERAGE
 164 ID: Up16
     QUANTITY: RADIAL VELOCITY
     Coordinates (X,Y,Z):    1.200000E-01   -2.000000E-04    1.600000E-01
     TEMPORAL STATISTIC: RUNNING AVERAGE
 165 ID: Up16
     QUANTITY: RADIAL VELOCITY
     Coordinates (X,Y,Z):    1.300000E-01   -2.000000E-04    1.600000E-01
     TEMPORAL STATISTIC: RUNNING AVERAGE
 166 ID: Up16
     QUANTITY: RADIAL VELOCITY
     Coordinates (X,Y,Z):    1.400000E-01   -2.000000E-04    1.600000E-01
     TEMPORAL STATISTIC: RUNNING AVERAGE
 167 ID: Up16
     QUANTITY: RADIAL VELOCITY
     Coordinates (X,Y,Z):    1.500000E-01   -2.000000E-04    1.600000E-01
     TEMPORAL STATISTIC: RUNNING AVERAGE
 168 ID: Up16
     QUANTITY: RADIAL VELOCITY
     Coordinates (X,Y,Z):    1.600000E-01   -2.000000E-04    1.600000E-01
     TEMPORAL STATISTIC: RUNNING AVERAGE
 169 ID: Up18
     QUANTITY: RADIAL VELOCITY
     Coordinates (X,Y,Z):   -4.000000E-02   -2.000000E-04    1.800000E-01
     TEMPORAL STATISTIC: RUNNING AVERAGE
 170 ID: Up18
     QUANTITY: RADIAL VELOCITY
     Coordinates (X,Y,Z):   -3.000000E-02   -2.000000E-04    1.800000E-01
     TEMPORAL STATISTIC: RUNNING AVERAGE
 171 ID: Up18
     QUANTITY: RADIAL VELOCITY
     Coordinates (X,Y,Z):   -2.000000E-02   -2.000000E-04    1.800000E-01
     TEMPORAL STATISTIC: RUNNING AVERAGE
 172 ID: Up18
     QUANTITY: RADIAL VELOCITY
     Coordinates (X,Y,Z):   -1.000000E-02   -2.000000E-04    1.800000E-01
     TEMPORAL STATISTIC: RUNNING AVERAGE
 173 ID: Up18
     QUANTITY: RADIAL VELOCITY
     Coordinates (X,Y,Z):   -2.000000E-04   -2.000000E-04    1.800000E-01
     TEMPORAL STATISTIC: RUNNING AVERAGE
 174 ID: Up18
     QUANTITY: RADIAL VELOCITY
     Coordinates (X,Y,Z):    1.000000E-02   -2.000000E-04    1.800000E-01
     TEMPORAL STATISTIC: RUNNING AVERAGE
 175 ID: Up18
     QUANTITY: RADIAL VELOCITY
     Coordinates (X,Y,Z):    2.000000E-02   -2.000000E-04    1.800000E-01
     TEMPORAL STATISTIC: RUNNING AVERAGE
 176 ID: Up18
     QUANTITY: RADIAL VELOCITY
     Coordinates (X,Y,Z):    3.000000E-02   -2.000000E-04    1.800000E-01
     TEMPORAL STATISTIC: RUNNING AVERAGE
 177 ID: Up18
     QUANTITY: RADIAL VELOCITY
     Coordinates (X,Y,Z):    4.000000E-02   -2.000000E-04    1.800000E-01
     TEMPORAL STATISTIC: RUNNING AVERAGE
 178 ID: Up18
     QUANTITY: RADIAL VELOCITY
     Coordinates (X,Y,Z):    5.000000E-02   -2.000000E-04    1.800000E-01
     TEMPORAL STATISTIC: RUNNING AVERAGE
 179 ID: Up18
     QUANTITY: RADIAL VELOCITY
     Coordinates (X,Y,Z):    6.000000E-02   -2.000000E-04    1.800000E-01
     TEMPORAL STATISTIC: RUNNING AVERAGE
 180 ID: Up18
     QUANTITY: RADIAL VELOCITY
     Coordinates (X,Y,Z):    7.000000E-02   -2.000000E-04    1.800000E-01
     TEMPORAL STATISTIC: RUNNING AVERAGE
 181 ID: Up18
     QUANTITY: RADIAL VELOCITY
     Coordinates (X,Y,Z):    8.000000E-02   -2.000000E-04    1.800000E-01
     TEMPORAL STATISTIC: RUNNING AVERAGE
 182 ID: Up18
     QUANTITY: RADIAL VELOCITY
     Coordinates (X,Y,Z):    9.000000E-02   -2.000000E-04    1.800000E-01
     TEMPORAL STATISTIC: RUNNING AVERAGE
 183 ID: Up18
     QUANTITY: RADIAL VELOCITY
     Coordinates (X,Y,Z):    1.000000E-01   -2.000000E-04    1.800000E-01
     TEMPORAL STATISTIC: RUNNING AVERAGE
 184 ID: Up18
     QUANTITY: RADIAL VELOCITY
     Coordinates (X,Y,Z):    1.100000E-01   -2.000000E-04    1.800000E-01
     TEMPORAL STATISTIC: RUNNING AVERAGE
 185 ID: Up18
     QUANTITY: RADIAL VELOCITY
     Coordinates (X,Y,Z):    1.200000E-01   -2.000000E-04    1.800000E-01
     TEMPORAL STATISTIC: RUNNING AVERAGE
 186 ID: Up18
     QUANTITY: RADIAL VELOCITY
     Coordinates (X,Y,Z):    1.300000E-01   -2.000000E-04    1.800000E-01
     TEMPORAL STATISTIC: RUNNING AVERAGE
 187 ID: Up18
     QUANTITY: RADIAL VELOCITY
     Coordinates (X,Y,Z):    1.400000E-01   -2.000000E-04    1.800000E-01
     TEMPORAL STATISTIC: RUNNING AVERAGE
 188 ID: Up18
     QUANTITY: RADIAL VELOCITY
     Coordinates (X,Y,Z):    1.500000E-01   -2.000000E-04    1.800000E-01
     TEMPORAL STATISTIC: RUNNING AVERAGE
 189 ID: Up18
     QUANTITY: RADIAL VELOCITY
     Coordinates (X,Y,Z):    1.600000E-01   -2.000000E-04    1.800000E-01
     TEMPORAL STATISTIC: RUNNING AVERAGE
 190 ID: Up20
     QUANTITY: RADIAL VELOCITY
     Coordinates (X,Y,Z):   -4.000000E-02   -2.000000E-04    2.000000E-01
     TEMPORAL STATISTIC: RUNNING AVERAGE
 191 ID: Up20
     QUANTITY: RADIAL VELOCITY
     Coordinates (X,Y,Z):   -3.000000E-02   -2.000000E-04    2.000000E-01
     TEMPORAL STATISTIC: RUNNING AVERAGE
 192 ID: Up20
     QUANTITY: RADIAL VELOCITY
     Coordinates (X,Y,Z):   -2.000000E-02   -2.000000E-04    2.000000E-01
     TEMPORAL STATISTIC: RUNNING AVERAGE
 193 ID: Up20
     QUANTITY: RADIAL VELOCITY
     Coordinates (X,Y,Z):   -1.000000E-02   -2.000000E-04    2.000000E-01
     TEMPORAL STATISTIC: RUNNING AVERAGE
 194 ID: Up20
     QUANTITY: RADIAL VELOCITY
     Coordinates (X,Y,Z):   -2.000000E-04   -2.000000E-04    2.000000E-01
     TEMPORAL STATISTIC: RUNNING AVERAGE
 195 ID: Up20
     QUANTITY: RADIAL VELOCITY
     Coordinates (X,Y,Z):    1.000000E-02   -2.000000E-04    2.000000E-01
     TEMPORAL STATISTIC: RUNNING AVERAGE
 196 ID: Up20
     QUANTITY: RADIAL VELOCITY
     Coordinates (X,Y,Z):    2.000000E-02   -2.000000E-04    2.000000E-01
     TEMPORAL STATISTIC: RUNNING AVERAGE
 197 ID: Up20
     QUANTITY: RADIAL VELOCITY
     Coordinates (X,Y,Z):    3.000000E-02   -2.000000E-04    2.000000E-01
     TEMPORAL STATISTIC: RUNNING AVERAGE
 198 ID: Up20
     QUANTITY: RADIAL VELOCITY
     Coordinates (X,Y,Z):    4.000000E-02   -2.000000E-04    2.000000E-01
     TEMPORAL STATISTIC: RUNNING AVERAGE
 199 ID: Up20
     QUANTITY: RADIAL VELOCITY
     Coordinates (X,Y,Z):    5.000000E-02   -2.000000E-04    2.000000E-01
     TEMPORAL STATISTIC: RUNNING AVERAGE
 200 ID: Up20
     QUANTITY: RADIAL VELOCITY
     Coordinates (X,Y,Z):    6.000000E-02   -2.000000E-04    2.000000E-01
     TEMPORAL STATISTIC: RUNNING AVERAGE
 201 ID: Up20
     QUANTITY: RADIAL VELOCITY
     Coordinates (X,Y,Z):    7.000000E-02   -2.000000E-04    2.000000E-01
     TEMPORAL STATISTIC: RUNNING AVERAGE
 202 ID: Up20
     QUANTITY: RADIAL VELOCITY
     Coordinates (X,Y,Z):    8.000000E-02   -2.000000E-04    2.000000E-01
     TEMPORAL STATISTIC: RUNNING AVERAGE
 203 ID: Up20
     QUANTITY: RADIAL VELOCITY
     Coordinates (X,Y,Z):    9.000000E-02   -2.000000E-04    2.000000E-01
     TEMPORAL STATISTIC: RUNNING AVERAGE
 204 ID: Up20
     QUANTITY: RADIAL VELOCITY
     Coordinates (X,Y,Z):    1.000000E-01   -2.000000E-04    2.000000E-01
     TEMPORAL STATISTIC: RUNNING AVERAGE
 205 ID: Up20
     QUANTITY: RADIAL VELOCITY
     Coordinates (X,Y,Z):    1.100000E-01   -2.000000E-04    2.000000E-01
     TEMPORAL STATISTIC: RUNNING AVERAGE
 206 ID: Up20
     QUANTITY: RADIAL VELOCITY
     Coordinates (X,Y,Z):    1.200000E-01   -2.000000E-04    2.000000E-01
     TEMPORAL STATISTIC: RUNNING AVERAGE
 207 ID: Up20
     QUANTITY: RADIAL VELOCITY
     Coordinates (X,Y,Z):    1.300000E-01   -2.000000E-04    2.000000E-01
     TEMPORAL STATISTIC: RUNNING AVERAGE
 208 ID: Up20
     QUANTITY: RADIAL VELOCITY
     Coordinates (X,Y,Z):    1.400000E-01   -2.000000E-04    2.000000E-01
     TEMPORAL STATISTIC: RUNNING AVERAGE
 209 ID: Up20
     QUANTITY: RADIAL VELOCITY
     Coordinates (X,Y,Z):    1.500000E-01   -2.000000E-04    2.000000E-01
     TEMPORAL STATISTIC: RUNNING AVERAGE
 210 ID: Up20
     QUANTITY: RADIAL VELOCITY
     Coordinates (X,Y,Z):    1.600000E-01   -2.000000E-04    2.000000E-01
     TEMPORAL STATISTIC: RUNNING AVERAGE
 211 ID: Up30
     QUANTITY: RADIAL VELOCITY
     Coordinates (X,Y,Z):   -4.000000E-02   -2.000000E-04    3.000000E-01
     TEMPORAL STATISTIC: RUNNING AVERAGE
 212 ID: Up30
     QUANTITY: RADIAL VELOCITY
     Coordinates (X,Y,Z):   -3.000000E-02   -2.000000E-04    3.000000E-01
     TEMPORAL STATISTIC: RUNNING AVERAGE
 213 ID: Up30
     QUANTITY: RADIAL VELOCITY
     Coordinates (X,Y,Z):   -2.000000E-02   -2.000000E-04    3.000000E-01
     TEMPORAL STATISTIC: RUNNING AVERAGE
 214 ID: Up30
     QUANTITY: RADIAL VELOCITY
     Coordinates (X,Y,Z):   -1.000000E-02   -2.000000E-04    3.000000E-01
     TEMPORAL STATISTIC: RUNNING AVERAGE
 215 ID: Up30
     QUANTITY: RADIAL VELOCITY
     Coordinates (X,Y,Z):   -2.000000E-04   -2.000000E-04    3.000000E-01
     TEMPORAL STATISTIC: RUNNING AVERAGE
 216 ID: Up30
     QUANTITY: RADIAL VELOCITY
     Coordinates (X,Y,Z):    1.000000E-02   -2.000000E-04    3.000000E-01
     TEMPORAL STATISTIC: RUNNING AVERAGE
 217 ID: Up30
     QUANTITY: RADIAL VELOCITY
     Coordinates (X,Y,Z):    2.000000E-02   -2.000000E-04    3.000000E-01
     TEMPORAL STATISTIC: RUNNING AVERAGE
 218 ID: Up30
     QUANTITY: RADIAL VELOCITY
     Coordinates (X,Y,Z):    3.000000E-02   -2.000000E-04    3.000000E-01
     TEMPORAL STATISTIC: RUNNING AVERAGE
 219 ID: Up30
     QUANTITY: RADIAL VELOCITY
     Coordinates (X,Y,Z):    4.000000E-02   -2.000000E-04    3.000000E-01
     TEMPORAL STATISTIC: RUNNING AVERAGE
 220 ID: Up30
     QUANTITY: RADIAL VELOCITY
     Coordinates (X,Y,Z):    5.000000E-02   -2.000000E-04    3.000000E-01
     TEMPORAL STATISTIC: RUNNING AVERAGE
 221 ID: Up30
     QUANTITY: RADIAL VELOCITY
     Coordinates (X,Y,Z):    6.000000E-02   -2.000000E-04    3.000000E-01
     TEMPORAL STATISTIC: RUNNING AVERAGE
 222 ID: Up30
     QUANTITY: RADIAL VELOCITY
     Coordinates (X,Y,Z):    7.000000E-02   -2.000000E-04    3.000000E-01
     TEMPORAL STATISTIC: RUNNING AVERAGE
 223 ID: Up30
     QUANTITY: RADIAL VELOCITY
     Coordinates (X,Y,Z):    8.000000E-02   -2.000000E-04    3.000000E-01
     TEMPORAL STATISTIC: RUNNING AVERAGE
 224 ID: Up30
     QUANTITY: RADIAL VELOCITY
     Coordinates (X,Y,Z):    9.000000E-02   -2.000000E-04    3.000000E-01
     TEMPORAL STATISTIC: RUNNING AVERAGE
 225 ID: Up30
     QUANTITY: RADIAL VELOCITY
     Coordinates (X,Y,Z):    1.000000E-01   -2.000000E-04    3.000000E-01
     TEMPORAL STATISTIC: RUNNING AVERAGE
 226 ID: Up30
     QUANTITY: RADIAL VELOCITY
     Coordinates (X,Y,Z):    1.100000E-01   -2.000000E-04    3.000000E-01
     TEMPORAL STATISTIC: RUNNING AVERAGE
 227 ID: Up30
     QUANTITY: RADIAL VELOCITY
     Coordinates (X,Y,Z):    1.200000E-01   -2.000000E-04    3.000000E-01
     TEMPORAL STATISTIC: RUNNING AVERAGE
 228 ID: Up30
     QUANTITY: RADIAL VELOCITY
     Coordinates (X,Y,Z):    1.300000E-01   -2.000000E-04    3.000000E-01
     TEMPORAL STATISTIC: RUNNING AVERAGE
 229 ID: Up30
     QUANTITY: RADIAL VELOCITY
     Coordinates (X,Y,Z):    1.400000E-01   -2.000000E-04    3.000000E-01
     TEMPORAL STATISTIC: RUNNING AVERAGE
 230 ID: Up30
     QUANTITY: RADIAL VELOCITY
     Coordinates (X,Y,Z):    1.500000E-01   -2.000000E-04    3.000000E-01
     TEMPORAL STATISTIC: RUNNING AVERAGE
 231 ID: Up30
     QUANTITY: RADIAL VELOCITY
     Coordinates (X,Y,Z):    1.600000E-01   -2.000000E-04    3.000000E-01
     TEMPORAL STATISTIC: RUNNING AVERAGE
 232 ID: Up60
     QUANTITY: RADIAL VELOCITY
     Coordinates (X,Y,Z):   -4.000000E-02   -2.000000E-04    6.000000E-01
     TEMPORAL STATISTIC: RUNNING AVERAGE
 233 ID: Up60
     QUANTITY: RADIAL VELOCITY
     Coordinates (X,Y,Z):   -3.000000E-02   -2.000000E-04    6.000000E-01
     TEMPORAL STATISTIC: RUNNING AVERAGE
 234 ID: Up60
     QUANTITY: RADIAL VELOCITY
     Coordinates (X,Y,Z):   -2.000000E-02   -2.000000E-04    6.000000E-01
     TEMPORAL STATISTIC: RUNNING AVERAGE
 235 ID: Up60
     QUANTITY: RADIAL VELOCITY
     Coordinates (X,Y,Z):   -1.000000E-02   -2.000000E-04    6.000000E-01
     TEMPORAL STATISTIC: RUNNING AVERAGE
 236 ID: Up60
     QUANTITY: RADIAL VELOCITY
     Coordinates (X,Y,Z):   -2.000000E-04   -2.000000E-04    6.000000E-01
     TEMPORAL STATISTIC: RUNNING AVERAGE
 237 ID: Up60
     QUANTITY: RADIAL VELOCITY
     Coordinates (X,Y,Z):    1.000000E-02   -2.000000E-04    6.000000E-01
     TEMPORAL STATISTIC: RUNNING AVERAGE
 238 ID: Up60
     QUANTITY: RADIAL VELOCITY
     Coordinates (X,Y,Z):    2.000000E-02   -2.000000E-04    6.000000E-01
     TEMPORAL STATISTIC: RUNNING AVERAGE
 239 ID: Up60
     QUANTITY: RADIAL VELOCITY
     Coordinates (X,Y,Z):    3.000000E-02   -2.000000E-04    6.000000E-01
     TEMPORAL STATISTIC: RUNNING AVERAGE
 240 ID: Up60
     QUANTITY: RADIAL VELOCITY
     Coordinates (X,Y,Z):    4.000000E-02   -2.000000E-04    6.000000E-01
     TEMPORAL STATISTIC: RUNNING AVERAGE
 241 ID: Up60
     QUANTITY: RADIAL VELOCITY
     Coordinates (X,Y,Z):    5.000000E-02   -2.000000E-04    6.000000E-01
     TEMPORAL STATISTIC: RUNNING AVERAGE
 242 ID: Up60
     QUANTITY: RADIAL VELOCITY
     Coordinates (X,Y,Z):    6.000000E-02   -2.000000E-04    6.000000E-01
     TEMPORAL STATISTIC: RUNNING AVERAGE
 243 ID: Up60
     QUANTITY: RADIAL VELOCITY
     Coordinates (X,Y,Z):    7.000000E-02   -2.000000E-04    6.000000E-01
     TEMPORAL STATISTIC: RUNNING AVERAGE
 244 ID: Up60
     QUANTITY: RADIAL VELOCITY
     Coordinates (X,Y,Z):    8.000000E-02   -2.000000E-04    6.000000E-01
     TEMPORAL STATISTIC: RUNNING AVERAGE
 245 ID: Up60
     QUANTITY: RADIAL VELOCITY
     Coordinates (X,Y,Z):    9.000000E-02   -2.000000E-04    6.000000E-01
     TEMPORAL STATISTIC: RUNNING AVERAGE
 246 ID: Up60
     QUANTITY: RADIAL VELOCITY
     Coordinates (X,Y,Z):    1.000000E-01   -2.000000E-04    6.000000E-01
     TEMPORAL STATISTIC: RUNNING AVERAGE
 247 ID: Up60
     QUANTITY: RADIAL VELOCITY
     Coordinates (X,Y,Z):    1.100000E-01   -2.000000E-04    6.000000E-01
     TEMPORAL STATISTIC: RUNNING AVERAGE
 248 ID: Up60
     QUANTITY: RADIAL VELOCITY
     Coordinates (X,Y,Z):    1.200000E-01   -2.000000E-04    6.000000E-01
     TEMPORAL STATISTIC: RUNNING AVERAGE
 249 ID: Up60
     QUANTITY: RADIAL VELOCITY
     Coordinates (X,Y,Z):    1.300000E-01   -2.000000E-04    6.000000E-01
     TEMPORAL STATISTIC: RUNNING AVERAGE
 250 ID: Up60
     QUANTITY: RADIAL VELOCITY
     Coordinates (X,Y,Z):    1.400000E-01   -2.000000E-04    6.000000E-01
     TEMPORAL STATISTIC: RUNNING AVERAGE
 251 ID: Up60
     QUANTITY: RADIAL VELOCITY
     Coordinates (X,Y,Z):    1.500000E-01   -2.000000E-04    6.000000E-01
     TEMPORAL STATISTIC: RUNNING AVERAGE
 252 ID: Up60
     QUANTITY: RADIAL VELOCITY
     Coordinates (X,Y,Z):    1.600000E-01   -2.000000E-04    6.000000E-01
     TEMPORAL STATISTIC: RUNNING AVERAGE
 253 ID: Wp2
     QUANTITY: W-VELOCITY
     Coordinates (X,Y,Z):   -4.000000E-02   -2.000000E-04    2.000000E-02
     TEMPORAL STATISTIC: RUNNING AVERAGE
 254 ID: Wp2
     QUANTITY: W-VELOCITY
     Coordinates (X,Y,Z):   -3.000000E-02   -2.000000E-04    2.000000E-02
     TEMPORAL STATISTIC: RUNNING AVERAGE
 255 ID: Wp2
     QUANTITY: W-VELOCITY
     Coordinates (X,Y,Z):   -2.000000E-02   -2.000000E-04    2.000000E-02
     TEMPORAL STATISTIC: RUNNING AVERAGE
 256 ID: Wp2
     QUANTITY: W-VELOCITY
     Coordinates (X,Y,Z):   -1.000000E-02   -2.000000E-04    2.000000E-02
     TEMPORAL STATISTIC: RUNNING AVERAGE
 257 ID: Wp2
     QUANTITY: W-VELOCITY
     Coordinates (X,Y,Z):   -2.000000E-04   -2.000000E-04    2.000000E-02
     TEMPORAL STATISTIC: RUNNING AVERAGE
 258 ID: Wp2
     QUANTITY: W-VELOCITY
     Coordinates (X,Y,Z):    1.000000E-02   -2.000000E-04    2.000000E-02
     TEMPORAL STATISTIC: RUNNING AVERAGE
 259 ID: Wp2
     QUANTITY: W-VELOCITY
     Coordinates (X,Y,Z):    2.000000E-02   -2.000000E-04    2.000000E-02
     TEMPORAL STATISTIC: RUNNING AVERAGE
 260 ID: Wp2
     QUANTITY: W-VELOCITY
     Coordinates (X,Y,Z):    3.000000E-02   -2.000000E-04    2.000000E-02
     TEMPORAL STATISTIC: RUNNING AVERAGE
 261 ID: Wp2
     QUANTITY: W-VELOCITY
     Coordinates (X,Y,Z):    4.000000E-02   -2.000000E-04    2.000000E-02
     TEMPORAL STATISTIC: RUNNING AVERAGE
 262 ID: Wp2
     QUANTITY: W-VELOCITY
     Coordinates (X,Y,Z):    5.000000E-02   -2.000000E-04    2.000000E-02
     TEMPORAL STATISTIC: RUNNING AVERAGE
 263 ID: Wp2
     QUANTITY: W-VELOCITY
     Coordinates (X,Y,Z):    6.000000E-02   -2.000000E-04    2.000000E-02
     TEMPORAL STATISTIC: RUNNING AVERAGE
 264 ID: Wp2
     QUANTITY: W-VELOCITY
     Coordinates (X,Y,Z):    7.000000E-02   -2.000000E-04    2.000000E-02
     TEMPORAL STATISTIC: RUNNING AVERAGE
 265 ID: Wp2
     QUANTITY: W-VELOCITY
     Coordinates (X,Y,Z):    8.000000E-02   -2.000000E-04    2.000000E-02
     TEMPORAL STATISTIC: RUNNING AVERAGE
 266 ID: Wp2
     QUANTITY: W-VELOCITY
     Coordinates (X,Y,Z):    9.000000E-02   -2.000000E-04    2.000000E-02
     TEMPORAL STATISTIC: RUNNING AVERAGE
 267 ID: Wp2
     QUANTITY: W-VELOCITY
     Coordinates (X,Y,Z):    1.000000E-01   -2.000000E-04    2.000000E-02
     TEMPORAL STATISTIC: RUNNING AVERAGE
 268 ID: Wp2
     QUANTITY: W-VELOCITY
     Coordinates (X,Y,Z):    1.100000E-01   -2.000000E-04    2.000000E-02
     TEMPORAL STATISTIC: RUNNING AVERAGE
 269 ID: Wp2
     QUANTITY: W-VELOCITY
     Coordinates (X,Y,Z):    1.200000E-01   -2.000000E-04    2.000000E-02
     TEMPORAL STATISTIC: RUNNING AVERAGE
 270 ID: Wp2
     QUANTITY: W-VELOCITY
     Coordinates (X,Y,Z):    1.300000E-01   -2.000000E-04    2.000000E-02
     TEMPORAL STATISTIC: RUNNING AVERAGE
 271 ID: Wp2
     QUANTITY: W-VELOCITY
     Coordinates (X,Y,Z):    1.400000E-01   -2.000000E-04    2.000000E-02
     TEMPORAL STATISTIC: RUNNING AVERAGE
 272 ID: Wp2
     QUANTITY: W-VELOCITY
     Coordinates (X,Y,Z):    1.500000E-01   -2.000000E-04    2.000000E-02
     TEMPORAL STATISTIC: RUNNING AVERAGE
 273 ID: Wp2
     QUANTITY: W-VELOCITY
     Coordinates (X,Y,Z):    1.600000E-01   -2.000000E-04    2.000000E-02
     TEMPORAL STATISTIC: RUNNING AVERAGE
 274 ID: Wp4
     QUANTITY: W-VELOCITY
     Coordinates (X,Y,Z):   -4.000000E-02   -2.000000E-04    4.000000E-02
     TEMPORAL STATISTIC: RUNNING AVERAGE
 275 ID: Wp4
     QUANTITY: W-VELOCITY
     Coordinates (X,Y,Z):   -3.000000E-02   -2.000000E-04    4.000000E-02
     TEMPORAL STATISTIC: RUNNING AVERAGE
 276 ID: Wp4
     QUANTITY: W-VELOCITY
     Coordinates (X,Y,Z):   -2.000000E-02   -2.000000E-04    4.000000E-02
     TEMPORAL STATISTIC: RUNNING AVERAGE
 277 ID: Wp4
     QUANTITY: W-VELOCITY
     Coordinates (X,Y,Z):   -1.000000E-02   -2.000000E-04    4.000000E-02
     TEMPORAL STATISTIC: RUNNING AVERAGE
 278 ID: Wp4
     QUANTITY: W-VELOCITY
     Coordinates (X,Y,Z):   -2.000000E-04   -2.000000E-04    4.000000E-02
     TEMPORAL STATISTIC: RUNNING AVERAGE
 279 ID: Wp4
     QUANTITY: W-VELOCITY
     Coordinates (X,Y,Z):    1.000000E-02   -2.000000E-04    4.000000E-02
     TEMPORAL STATISTIC: RUNNING AVERAGE
 280 ID: Wp4
     QUANTITY: W-VELOCITY
     Coordinates (X,Y,Z):    2.000000E-02   -2.000000E-04    4.000000E-02
     TEMPORAL STATISTIC: RUNNING AVERAGE
 281 ID: Wp4
     QUANTITY: W-VELOCITY
     Coordinates (X,Y,Z):    3.000000E-02   -2.000000E-04    4.000000E-02
     TEMPORAL STATISTIC: RUNNING AVERAGE
 282 ID: Wp4
     QUANTITY: W-VELOCITY
     Coordinates (X,Y,Z):    4.000000E-02   -2.000000E-04    4.000000E-02
     TEMPORAL STATISTIC: RUNNING AVERAGE
 283 ID: Wp4
     QUANTITY: W-VELOCITY
     Coordinates (X,Y,Z):    5.000000E-02   -2.000000E-04    4.000000E-02
     TEMPORAL STATISTIC: RUNNING AVERAGE
 284 ID: Wp4
     QUANTITY: W-VELOCITY
     Coordinates (X,Y,Z):    6.000000E-02   -2.000000E-04    4.000000E-02
     TEMPORAL STATISTIC: RUNNING AVERAGE
 285 ID: Wp4
     QUANTITY: W-VELOCITY
     Coordinates (X,Y,Z):    7.000000E-02   -2.000000E-04    4.000000E-02
     TEMPORAL STATISTIC: RUNNING AVERAGE
 286 ID: Wp4
     QUANTITY: W-VELOCITY
     Coordinates (X,Y,Z):    8.000000E-02   -2.000000E-04    4.000000E-02
     TEMPORAL STATISTIC: RUNNING AVERAGE
 287 ID: Wp4
     QUANTITY: W-VELOCITY
     Coordinates (X,Y,Z):    9.000000E-02   -2.000000E-04    4.000000E-02
     TEMPORAL STATISTIC: RUNNING AVERAGE
 288 ID: Wp4
     QUANTITY: W-VELOCITY
     Coordinates (X,Y,Z):    1.000000E-01   -2.000000E-04    4.000000E-02
     TEMPORAL STATISTIC: RUNNING AVERAGE
 289 ID: Wp4
     QUANTITY: W-VELOCITY
     Coordinates (X,Y,Z):    1.100000E-01   -2.000000E-04    4.000000E-02
     TEMPORAL STATISTIC: RUNNING AVERAGE
 290 ID: Wp4
     QUANTITY: W-VELOCITY
     Coordinates (X,Y,Z):    1.200000E-01   -2.000000E-04    4.000000E-02
     TEMPORAL STATISTIC: RUNNING AVERAGE
 291 ID: Wp4
     QUANTITY: W-VELOCITY
     Coordinates (X,Y,Z):    1.300000E-01   -2.000000E-04    4.000000E-02
     TEMPORAL STATISTIC: RUNNING AVERAGE
 292 ID: Wp4
     QUANTITY: W-VELOCITY
     Coordinates (X,Y,Z):    1.400000E-01   -2.000000E-04    4.000000E-02
     TEMPORAL STATISTIC: RUNNING AVERAGE
 293 ID: Wp4
     QUANTITY: W-VELOCITY
     Coordinates (X,Y,Z):    1.500000E-01   -2.000000E-04    4.000000E-02
     TEMPORAL STATISTIC: RUNNING AVERAGE
 294 ID: Wp4
     QUANTITY: W-VELOCITY
     Coordinates (X,Y,Z):    1.600000E-01   -2.000000E-04    4.000000E-02
     TEMPORAL STATISTIC: RUNNING AVERAGE
 295 ID: Wp6
     QUANTITY: W-VELOCITY
     Coordinates (X,Y,Z):   -4.000000E-02   -2.000000E-04    6.000000E-02
     TEMPORAL STATISTIC: RUNNING AVERAGE
 296 ID: Wp6
     QUANTITY: W-VELOCITY
     Coordinates (X,Y,Z):   -3.000000E-02   -2.000000E-04    6.000000E-02
     TEMPORAL STATISTIC: RUNNING AVERAGE
 297 ID: Wp6
     QUANTITY: W-VELOCITY
     Coordinates (X,Y,Z):   -2.000000E-02   -2.000000E-04    6.000000E-02
     TEMPORAL STATISTIC: RUNNING AVERAGE
 298 ID: Wp6
     QUANTITY: W-VELOCITY
     Coordinates (X,Y,Z):   -1.000000E-02   -2.000000E-04    6.000000E-02
     TEMPORAL STATISTIC: RUNNING AVERAGE
 299 ID: Wp6
     QUANTITY: W-VELOCITY
     Coordinates (X,Y,Z):   -2.000000E-04   -2.000000E-04    6.000000E-02
     TEMPORAL STATISTIC: RUNNING AVERAGE
 300 ID: Wp6
     QUANTITY: W-VELOCITY
     Coordinates (X,Y,Z):    1.000000E-02   -2.000000E-04    6.000000E-02
     TEMPORAL STATISTIC: RUNNING AVERAGE
 301 ID: Wp6
     QUANTITY: W-VELOCITY
     Coordinates (X,Y,Z):    2.000000E-02   -2.000000E-04    6.000000E-02
     TEMPORAL STATISTIC: RUNNING AVERAGE
 302 ID: Wp6
     QUANTITY: W-VELOCITY
     Coordinates (X,Y,Z):    3.000000E-02   -2.000000E-04    6.000000E-02
     TEMPORAL STATISTIC: RUNNING AVERAGE
 303 ID: Wp6
     QUANTITY: W-VELOCITY
     Coordinates (X,Y,Z):    4.000000E-02   -2.000000E-04    6.000000E-02
     TEMPORAL STATISTIC: RUNNING AVERAGE
 304 ID: Wp6
     QUANTITY: W-VELOCITY
     Coordinates (X,Y,Z):    5.000000E-02   -2.000000E-04    6.000000E-02
     TEMPORAL STATISTIC: RUNNING AVERAGE
 305 ID: Wp6
     QUANTITY: W-VELOCITY
     Coordinates (X,Y,Z):    6.000000E-02   -2.000000E-04    6.000000E-02
     TEMPORAL STATISTIC: RUNNING AVERAGE
 306 ID: Wp6
     QUANTITY: W-VELOCITY
     Coordinates (X,Y,Z):    7.000000E-02   -2.000000E-04    6.000000E-02
     TEMPORAL STATISTIC: RUNNING AVERAGE
 307 ID: Wp6
     QUANTITY: W-VELOCITY
     Coordinates (X,Y,Z):    8.000000E-02   -2.000000E-04    6.000000E-02
     TEMPORAL STATISTIC: RUNNING AVERAGE
 308 ID: Wp6
     QUANTITY: W-VELOCITY
     Coordinates (X,Y,Z):    9.000000E-02   -2.000000E-04    6.000000E-02
     TEMPORAL STATISTIC: RUNNING AVERAGE
 309 ID: Wp6
     QUANTITY: W-VELOCITY
     Coordinates (X,Y,Z):    1.000000E-01   -2.000000E-04    6.000000E-02
     TEMPORAL STATISTIC: RUNNING AVERAGE
 310 ID: Wp6
     QUANTITY: W-VELOCITY
     Coordinates (X,Y,Z):    1.100000E-01   -2.000000E-04    6.000000E-02
     TEMPORAL STATISTIC: RUNNING AVERAGE
 311 ID: Wp6
     QUANTITY: W-VELOCITY
     Coordinates (X,Y,Z):    1.200000E-01   -2.000000E-04    6.000000E-02
     TEMPORAL STATISTIC: RUNNING AVERAGE
 312 ID: Wp6
     QUANTITY: W-VELOCITY
     Coordinates (X,Y,Z):    1.300000E-01   -2.000000E-04    6.000000E-02
     TEMPORAL STATISTIC: RUNNING AVERAGE
 313 ID: Wp6
     QUANTITY: W-VELOCITY
     Coordinates (X,Y,Z):    1.400000E-01   -2.000000E-04    6.000000E-02
     TEMPORAL STATISTIC: RUNNING AVERAGE
 314 ID: Wp6
     QUANTITY: W-VELOCITY
     Coordinates (X,Y,Z):    1.500000E-01   -2.000000E-04    6.000000E-02
     TEMPORAL STATISTIC: RUNNING AVERAGE
 315 ID: Wp6
     QUANTITY: W-VELOCITY
     Coordinates (X,Y,Z):    1.600000E-01   -2.000000E-04    6.000000E-02
     TEMPORAL STATISTIC: RUNNING AVERAGE
 316 ID: Wp8
     QUANTITY: W-VELOCITY
     Coordinates (X,Y,Z):   -4.000000E-02   -2.000000E-04    8.000000E-02
     TEMPORAL STATISTIC: RUNNING AVERAGE
 317 ID: Wp8
     QUANTITY: W-VELOCITY
     Coordinates (X,Y,Z):   -3.000000E-02   -2.000000E-04    8.000000E-02
     TEMPORAL STATISTIC: RUNNING AVERAGE
 318 ID: Wp8
     QUANTITY: W-VELOCITY
     Coordinates (X,Y,Z):   -2.000000E-02   -2.000000E-04    8.000000E-02
     TEMPORAL STATISTIC: RUNNING AVERAGE
 319 ID: Wp8
     QUANTITY: W-VELOCITY
     Coordinates (X,Y,Z):   -1.000000E-02   -2.000000E-04    8.000000E-02
     TEMPORAL STATISTIC: RUNNING AVERAGE
 320 ID: Wp8
     QUANTITY: W-VELOCITY
     Coordinates (X,Y,Z):   -2.000000E-04   -2.000000E-04    8.000000E-02
     TEMPORAL STATISTIC: RUNNING AVERAGE
 321 ID: Wp8
     QUANTITY: W-VELOCITY
     Coordinates (X,Y,Z):    1.000000E-02   -2.000000E-04    8.000000E-02
     TEMPORAL STATISTIC: RUNNING AVERAGE
 322 ID: Wp8
     QUANTITY: W-VELOCITY
     Coordinates (X,Y,Z):    2.000000E-02   -2.000000E-04    8.000000E-02
     TEMPORAL STATISTIC: RUNNING AVERAGE
 323 ID: Wp8
     QUANTITY: W-VELOCITY
     Coordinates (X,Y,Z):    3.000000E-02   -2.000000E-04    8.000000E-02
     TEMPORAL STATISTIC: RUNNING AVERAGE
 324 ID: Wp8
     QUANTITY: W-VELOCITY
     Coordinates (X,Y,Z):    4.000000E-02   -2.000000E-04    8.000000E-02
     TEMPORAL STATISTIC: RUNNING AVERAGE
 325 ID: Wp8
     QUANTITY: W-VELOCITY
     Coordinates (X,Y,Z):    5.000000E-02   -2.000000E-04    8.000000E-02
     TEMPORAL STATISTIC: RUNNING AVERAGE
 326 ID: Wp8
     QUANTITY: W-VELOCITY
     Coordinates (X,Y,Z):    6.000000E-02   -2.000000E-04    8.000000E-02
     TEMPORAL STATISTIC: RUNNING AVERAGE
 327 ID: Wp8
     QUANTITY: W-VELOCITY
     Coordinates (X,Y,Z):    7.000000E-02   -2.000000E-04    8.000000E-02
     TEMPORAL STATISTIC: RUNNING AVERAGE
 328 ID: Wp8
     QUANTITY: W-VELOCITY
     Coordinates (X,Y,Z):    8.000000E-02   -2.000000E-04    8.000000E-02
     TEMPORAL STATISTIC: RUNNING AVERAGE
 329 ID: Wp8
     QUANTITY: W-VELOCITY
     Coordinates (X,Y,Z):    9.000000E-02   -2.000000E-04    8.000000E-02
     TEMPORAL STATISTIC: RUNNING AVERAGE
 330 ID: Wp8
     QUANTITY: W-VELOCITY
     Coordinates (X,Y,Z):    1.000000E-01   -2.000000E-04    8.000000E-02
     TEMPORAL STATISTIC: RUNNING AVERAGE
 331 ID: Wp8
     QUANTITY: W-VELOCITY
     Coordinates (X,Y,Z):    1.100000E-01   -2.000000E-04    8.000000E-02
     TEMPORAL STATISTIC: RUNNING AVERAGE
 332 ID: Wp8
     QUANTITY: W-VELOCITY
     Coordinates (X,Y,Z):    1.200000E-01   -2.000000E-04    8.000000E-02
     TEMPORAL STATISTIC: RUNNING AVERAGE
 333 ID: Wp8
     QUANTITY: W-VELOCITY
     Coordinates (X,Y,Z):    1.300000E-01   -2.000000E-04    8.000000E-02
     TEMPORAL STATISTIC: RUNNING AVERAGE
 334 ID: Wp8
     QUANTITY: W-VELOCITY
     Coordinates (X,Y,Z):    1.400000E-01   -2.000000E-04    8.000000E-02
     TEMPORAL STATISTIC: RUNNING AVERAGE
 335 ID: Wp8
     QUANTITY: W-VELOCITY
     Coordinates (X,Y,Z):    1.500000E-01   -2.000000E-04    8.000000E-02
     TEMPORAL STATISTIC: RUNNING AVERAGE
 336 ID: Wp8
     QUANTITY: W-VELOCITY
     Coordinates (X,Y,Z):    1.600000E-01   -2.000000E-04    8.000000E-02
     TEMPORAL STATISTIC: RUNNING AVERAGE
 337 ID: Wp10
     QUANTITY: W-VELOCITY
     Coordinates (X,Y,Z):   -4.000000E-02   -2.000000E-04    1.000000E-01
     TEMPORAL STATISTIC: RUNNING AVERAGE
 338 ID: Wp10
     QUANTITY: W-VELOCITY
     Coordinates (X,Y,Z):   -3.000000E-02   -2.000000E-04    1.000000E-01
     TEMPORAL STATISTIC: RUNNING AVERAGE
 339 ID: Wp10
     QUANTITY: W-VELOCITY
     Coordinates (X,Y,Z):   -2.000000E-02   -2.000000E-04    1.000000E-01
     TEMPORAL STATISTIC: RUNNING AVERAGE
 340 ID: Wp10
     QUANTITY: W-VELOCITY
     Coordinates (X,Y,Z):   -1.000000E-02   -2.000000E-04    1.000000E-01
     TEMPORAL STATISTIC: RUNNING AVERAGE
 341 ID: Wp10
     QUANTITY: W-VELOCITY
     Coordinates (X,Y,Z):   -2.000000E-04   -2.000000E-04    1.000000E-01
     TEMPORAL STATISTIC: RUNNING AVERAGE
 342 ID: Wp10
     QUANTITY: W-VELOCITY
     Coordinates (X,Y,Z):    1.000000E-02   -2.000000E-04    1.000000E-01
     TEMPORAL STATISTIC: RUNNING AVERAGE
 343 ID: Wp10
     QUANTITY: W-VELOCITY
     Coordinates (X,Y,Z):    2.000000E-02   -2.000000E-04    1.000000E-01
     TEMPORAL STATISTIC: RUNNING AVERAGE
 344 ID: Wp10
     QUANTITY: W-VELOCITY
     Coordinates (X,Y,Z):    3.000000E-02   -2.000000E-04    1.000000E-01
     TEMPORAL STATISTIC: RUNNING AVERAGE
 345 ID: Wp10
     QUANTITY: W-VELOCITY
     Coordinates (X,Y,Z):    4.000000E-02   -2.000000E-04    1.000000E-01
     TEMPORAL STATISTIC: RUNNING AVERAGE
 346 ID: Wp10
     QUANTITY: W-VELOCITY
     Coordinates (X,Y,Z):    5.000000E-02   -2.000000E-04    1.000000E-01
     TEMPORAL STATISTIC: RUNNING AVERAGE
 347 ID: Wp10
     QUANTITY: W-VELOCITY
     Coordinates (X,Y,Z):    6.000000E-02   -2.000000E-04    1.000000E-01
     TEMPORAL STATISTIC: RUNNING AVERAGE
 348 ID: Wp10
     QUANTITY: W-VELOCITY
     Coordinates (X,Y,Z):    7.000000E-02   -2.000000E-04    1.000000E-01
     TEMPORAL STATISTIC: RUNNING AVERAGE
 349 ID: Wp10
     QUANTITY: W-VELOCITY
     Coordinates (X,Y,Z):    8.000000E-02   -2.000000E-04    1.000000E-01
     TEMPORAL STATISTIC: RUNNING AVERAGE
 350 ID: Wp10
     QUANTITY: W-VELOCITY
     Coordinates (X,Y,Z):    9.000000E-02   -2.000000E-04    1.000000E-01
     TEMPORAL STATISTIC: RUNNING AVERAGE
 351 ID: Wp10
     QUANTITY: W-VELOCITY
     Coordinates (X,Y,Z):    1.000000E-01   -2.000000E-04    1.000000E-01
     TEMPORAL STATISTIC: RUNNING AVERAGE
 352 ID: Wp10
     QUANTITY: W-VELOCITY
     Coordinates (X,Y,Z):    1.100000E-01   -2.000000E-04    1.000000E-01
     TEMPORAL STATISTIC: RUNNING AVERAGE
 353 ID: Wp10
     QUANTITY: W-VELOCITY
     Coordinates (X,Y,Z):    1.200000E-01   -2.000000E-04    1.000000E-01
     TEMPORAL STATISTIC: RUNNING AVERAGE
 354 ID: Wp10
     QUANTITY: W-VELOCITY
     Coordinates (X,Y,Z):    1.300000E-01   -2.000000E-04    1.000000E-01
     TEMPORAL STATISTIC: RUNNING AVERAGE
 355 ID: Wp10
     QUANTITY: W-VELOCITY
     Coordinates (X,Y,Z):    1.400000E-01   -2.000000E-04    1.000000E-01
     TEMPORAL STATISTIC: RUNNING AVERAGE
 356 ID: Wp10
     QUANTITY: W-VELOCITY
     Coordinates (X,Y,Z):    1.500000E-01   -2.000000E-04    1.000000E-01
     TEMPORAL STATISTIC: RUNNING AVERAGE
 357 ID: Wp10
     QUANTITY: W-VELOCITY
     Coordinates (X,Y,Z):    1.600000E-01   -2.000000E-04    1.000000E-01
     TEMPORAL STATISTIC: RUNNING AVERAGE
 358 ID: Wp12
     QUANTITY: W-VELOCITY
     Coordinates (X,Y,Z):   -4.000000E-02   -2.000000E-04    1.200000E-01
     TEMPORAL STATISTIC: RUNNING AVERAGE
 359 ID: Wp12
     QUANTITY: W-VELOCITY
     Coordinates (X,Y,Z):   -3.000000E-02   -2.000000E-04    1.200000E-01
     TEMPORAL STATISTIC: RUNNING AVERAGE
 360 ID: Wp12
     QUANTITY: W-VELOCITY
     Coordinates (X,Y,Z):   -2.000000E-02   -2.000000E-04    1.200000E-01
     TEMPORAL STATISTIC: RUNNING AVERAGE
 361 ID: Wp12
     QUANTITY: W-VELOCITY
     Coordinates (X,Y,Z):   -1.000000E-02   -2.000000E-04    1.200000E-01
     TEMPORAL STATISTIC: RUNNING AVERAGE
 362 ID: Wp12
     QUANTITY: W-VELOCITY
     Coordinates (X,Y,Z):   -2.000000E-04   -2.000000E-04    1.200000E-01
     TEMPORAL STATISTIC: RUNNING AVERAGE
 363 ID: Wp12
     QUANTITY: W-VELOCITY
     Coordinates (X,Y,Z):    1.000000E-02   -2.000000E-04    1.200000E-01
     TEMPORAL STATISTIC: RUNNING AVERAGE
 364 ID: Wp12
     QUANTITY: W-VELOCITY
     Coordinates (X,Y,Z):    2.000000E-02   -2.000000E-04    1.200000E-01
     TEMPORAL STATISTIC: RUNNING AVERAGE
 365 ID: Wp12
     QUANTITY: W-VELOCITY
     Coordinates (X,Y,Z):    3.000000E-02   -2.000000E-04    1.200000E-01
     TEMPORAL STATISTIC: RUNNING AVERAGE
 366 ID: Wp12
     QUANTITY: W-VELOCITY
     Coordinates (X,Y,Z):    4.000000E-02   -2.000000E-04    1.200000E-01
     TEMPORAL STATISTIC: RUNNING AVERAGE
 367 ID: Wp12
     QUANTITY: W-VELOCITY
     Coordinates (X,Y,Z):    5.000000E-02   -2.000000E-04    1.200000E-01
     TEMPORAL STATISTIC: RUNNING AVERAGE
 368 ID: Wp12
     QUANTITY: W-VELOCITY
     Coordinates (X,Y,Z):    6.000000E-02   -2.000000E-04    1.200000E-01
     TEMPORAL STATISTIC: RUNNING AVERAGE
 369 ID: Wp12
     QUANTITY: W-VELOCITY
     Coordinates (X,Y,Z):    7.000000E-02   -2.000000E-04    1.200000E-01
     TEMPORAL STATISTIC: RUNNING AVERAGE
 370 ID: Wp12
     QUANTITY: W-VELOCITY
     Coordinates (X,Y,Z):    8.000000E-02   -2.000000E-04    1.200000E-01
     TEMPORAL STATISTIC: RUNNING AVERAGE
 371 ID: Wp12
     QUANTITY: W-VELOCITY
     Coordinates (X,Y,Z):    9.000000E-02   -2.000000E-04    1.200000E-01
     TEMPORAL STATISTIC: RUNNING AVERAGE
 372 ID: Wp12
     QUANTITY: W-VELOCITY
     Coordinates (X,Y,Z):    1.000000E-01   -2.000000E-04    1.200000E-01
     TEMPORAL STATISTIC: RUNNING AVERAGE
 373 ID: Wp12
     QUANTITY: W-VELOCITY
     Coordinates (X,Y,Z):    1.100000E-01   -2.000000E-04    1.200000E-01
     TEMPORAL STATISTIC: RUNNING AVERAGE
 374 ID: Wp12
     QUANTITY: W-VELOCITY
     Coordinates (X,Y,Z):    1.200000E-01   -2.000000E-04    1.200000E-01
[...]
       Min divergence: -0.76E+01 at (2,1,8)
       Max VN number:   0.15E+00 at (3,2,6)
       Total Heat Release Rate:              1.059 kW
       Radiation Loss to Boundaries:        -0.405 kW
 
       Time Step   30300   August 17, 2023  13:01:04
       Step Size:    0.213E-02 s, Total Time:      58.96 s
       Pressure Iterations: 9
       Maximum Velocity Error:  0.80E-03 on Mesh 8 at (2,0,12)
       Maximum Pressure Error:  0.25E+04 on Mesh 6 at (2,14,9)
       ---------------------------------------------------------------
       Mesh    1
       Max CFL number:  0.55E+00 at (15,15,19)
       Max divergence:  0.14E+02 at (12,15,4)
       Min divergence: -0.30E+01 at (12,12,9)
       Max VN number:   0.82E-01 at (15,15,20)
       Total Heat Release Rate:              4.118 kW
       Radiation Loss to Boundaries:        -0.735 kW
       Mesh    2
       Max CFL number:  0.59E+00 at (1,15,20)
       Max divergence:  0.18E+02 at (1,12,5)
       Min divergence: -0.49E+01 at (2,14,18)
       Max VN number:   0.87E-01 at (3,14,15)
       Total Heat Release Rate:              4.911 kW
       Radiation Loss to Boundaries:        -1.118 kW
       Mesh    3
       Max CFL number:  0.60E+00 at (15,1,19)
       Max divergence:  0.12E+02 at (11,1,4)
       Min divergence: -0.48E+01 at (14,3,13)
       Max VN number:   0.99E-01 at (15,3,17)
       Total Heat Release Rate:              4.305 kW
       Radiation Loss to Boundaries:        -1.007 kW
       Mesh    4
       Max CFL number:  0.57E+00 at (1,1,20)
       Max divergence:  0.14E+02 at (3,3,4)
       Min divergence: -0.42E+01 at (1,3,10)
       Max VN number:   0.78E-01 at (2,3,10)
       Total Heat Release Rate:              4.597 kW
       Radiation Loss to Boundaries:        -0.852 kW
       Mesh    5
       Max CFL number:  0.66E+00 at (15,15,16)
       Max divergence:  0.56E+01 at (15,14,4)
       Min divergence: -0.31E+01 at (15,15,4)
       Max VN number:   0.82E-01 at (15,14,8)
       Total Heat Release Rate:              0.049 kW
       Radiation Loss to Boundaries:        -0.004 kW
       Mesh    6
       Max CFL number:  0.89E+00 at (2,15,8)
       Max divergence:  0.99E+01 at (2,15,14)
       Min divergence: -0.88E+01 at (2,15,9)
       Max VN number:   0.15E+00 at (2,14,8)
       Total Heat Release Rate:              0.328 kW
       Radiation Loss to Boundaries:        -0.168 kW
       Mesh    7
       Max CFL number:  0.81E+00 at (15,3,17)
       Max divergence:  0.11E+02 at (15,2,4)
       Min divergence: -0.45E+01 at (15,1,3)
       Max VN number:   0.12E+00 at (15,2,3)
       Total Heat Release Rate:              0.065 kW
       Radiation Loss to Boundaries:        -0.015 kW
       Mesh    8
       Max CFL number:  0.80E+00 at (1,4,15)
       Max divergence:  0.81E+01 at (3,1,14)
       Min divergence: -0.96E+01 at (1,1,16)
       Max VN number:   0.14E+00 at (1,1,15)
       Total Heat Release Rate:              0.216 kW
       Radiation Loss to Boundaries:        -0.118 kW
 
       Time Step   30400   August 17, 2023  13:01:13
       Step Size:    0.175E-02 s, Total Time:      59.16 s
       Pressure Iterations: 10
       Maximum Velocity Error:  0.81E-03 on Mesh 5 at (15,15,14)
       Maximum Pressure Error:  0.42E+04 on Mesh 7 at (14,1,15)
       ---------------------------------------------------------------
       Mesh    1
       Max CFL number:  0.57E+00 at (15,15,20)
       Max divergence:  0.13E+02 at (10,12,4)
       Min divergence: -0.22E+01 at (13,12,20)
       Max VN number:   0.69E-01 at (15,14,18)
       Total Heat Release Rate:              4.208 kW
       Radiation Loss to Boundaries:        -0.500 kW
       Mesh    2
       Max CFL number:  0.58E+00 at (1,15,20)
       Max divergence:  0.14E+02 at (4,10,4)
       Min divergence: -0.21E+01 at (2,15,16)
       Max VN number:   0.93E-01 at (2,15,18)
       Total Heat Release Rate:              4.479 kW
       Radiation Loss to Boundaries:        -0.612 kW
       Mesh    3
       Max CFL number:  0.62E+00 at (15,1,20)
       Max divergence:  0.11E+02 at (15,4,4)
       Min divergence: -0.25E+01 at (13,3,8)
       Max VN number:   0.90E-01 at (15,2,20)
       Total Heat Release Rate:              3.629 kW
       Radiation Loss to Boundaries:        -0.464 kW
       Mesh    4
       Max CFL number:  0.55E+00 at (1,1,20)
       Max divergence:  0.12E+02 at (6,4,4)
       Min divergence: -0.18E+01 at (3,1,4)
       Max VN number:   0.72E-01 at (1,3,19)
       Total Heat Release Rate:              3.672 kW
       Radiation Loss to Boundaries:        -0.543 kW
       Mesh    5
       Max CFL number:  0.82E+00 at (15,15,8)
       Max divergence:  0.14E+02 at (15,15,17)
       Min divergence: -0.84E+01 at (15,14,19)
       Max VN number:   0.13E+00 at (15,14,18)
       Total Heat Release Rate:              1.942 kW
       Radiation Loss to Boundaries:        -0.638 kW
       Mesh    6
       Max CFL number:  0.88E+00 at (5,15,19)
       Max divergence:  0.19E+02 at (1,15,17)
       Min divergence: -0.47E+01 at (1,13,9)
       Max VN number:   0.12E+00 at (2,13,10)
       Total Heat Release Rate:              2.984 kW
       Radiation Loss to Boundaries:        -1.086 kW
       Mesh    7
       Max CFL number:  0.82E+00 at (15,1,17)
       Max divergence:  0.17E+02 at (14,2,16)
       Min divergence: -0.11E+02 at (13,1,15)
       Max VN number:   0.14E+00 at (15,1,16)
       Total Heat Release Rate:              0.924 kW
       Radiation Loss to Boundaries:        -0.437 kW
       Mesh    8
       Max CFL number:  0.83E+00 at (5,1,19)
       Max divergence:  0.91E+01 at (1,1,17)
       Min divergence: -0.77E+01 at (6,1,19)
       Max VN number:   0.15E+00 at (6,1,19)
       Total Heat Release Rate:              1.675 kW
       Radiation Loss to Boundaries:        -0.685 kW
 
       Time Step   30500   August 17, 2023  13:01:21
       Step Size:    0.223E-02 s, Total Time:      59.35 s
       Pressure Iterations: 10
       Maximum Velocity Error:  0.79E-03 on Mesh 1 at (10,15,3)
       Maximum Pressure Error:  0.28E+04 on Mesh 6 at (3,14,3)
       ---------------------------------------------------------------
       Mesh    1
       Max CFL number:  0.54E+00 at (12,15,15)
       Max divergence:  0.18E+02 at (14,13,14)
       Min divergence: -0.60E+01 at (13,14,18)
       Max VN number:   0.12E+00 at (13,15,18)
       Total Heat Release Rate:              5.377 kW
       Radiation Loss to Boundaries:        -1.005 kW
       Mesh    2
       Max CFL number:  0.64E+00 at (3,15,20)
       Max divergence:  0.17E+02 at (1,13,6)
       Min divergence: -0.64E+01 at (1,12,18)
       Max VN number:   0.11E+00 at (4,14,18)
       Total Heat Release Rate:              5.691 kW
       Radiation Loss to Boundaries:        -1.219 kW
       Mesh    3
       Max CFL number:  0.60E+00 at (14,1,18)
       Max divergence:  0.22E+02 at (9,1,3)
       Min divergence: -0.48E+01 at (13,1,17)
       Max VN number:   0.11E+00 at (14,1,18)
       Total Heat Release Rate:              4.516 kW
       Radiation Loss to Boundaries:        -0.816 kW
       Mesh    4
       Max CFL number:  0.64E+00 at (2,2,19)
       Max divergence:  0.17E+02 at (4,1,4)
       Min divergence: -0.44E+01 at (2,3,20)
       Max VN number:   0.10E+00 at (3,1,20)
       Total Heat Release Rate:              5.106 kW
       Radiation Loss to Boundaries:        -1.142 kW
       Mesh    5
       Max CFL number:  0.67E+00 at (15,15,19)
       Max divergence:  0.57E+01 at (15,13,1)
       Min divergence: -0.40E+01 at (15,15,4)
       Max VN number:   0.99E-01 at (15,15,3)
       Total Heat Release Rate:              0.060 kW
       Radiation Loss to Boundaries:        -0.014 kW
       Mesh    6
       Max CFL number:  0.71E+00 at (1,15,18)
       Max divergence:  0.13E+02 at (3,15,6)
       Min divergence: -0.64E+01 at (3,14,3)
       Max VN number:   0.14E+00 at (3,14,2)
       Total Heat Release Rate:              0.687 kW
       Radiation Loss to Boundaries:        -0.258 kW
       Mesh    7
       Max CFL number:  0.85E+00 at (15,2,18)
       Max divergence:  0.34E+01 at (15,2,1)
       Min divergence: -0.39E+01 at (15,2,19)
       Max VN number:   0.13E+00 at (15,2,18)
       Total Heat Release Rate:              0.053 kW
       Radiation Loss to Boundaries:        -0.026 kW
       Mesh    8
       Max CFL number:  0.83E+00 at (1,1,19)
       Max divergence:  0.13E+02 at (3,2,8)
       Min divergence: -0.86E+01 at (1,1,11)
       Max VN number:   0.15E+00 at (2,1,8)
       Total Heat Release Rate:              0.528 kW
       Radiation Loss to Boundaries:        -0.246 kW
 
       Time Step   30600   August 17, 2023  13:01:30
       Step Size:    0.152E-02 s, Total Time:      59.54 s
       Pressure Iterations: 10
       Maximum Velocity Error:  0.84E-03 on Mesh 5 at (15,15,17)
       Maximum Pressure Error:  0.38E+04 on Mesh 7 at (14,2,18)
       ---------------------------------------------------------------
       Mesh    1
       Max CFL number:  0.40E+00 at (15,15,20)
       Max divergence:  0.16E+02 at (15,14,10)
       Min divergence: -0.32E+01 at (14,14,12)
       Max VN number:   0.67E-01 at (14,15,13)
       Total Heat Release Rate:              4.382 kW
       Radiation Loss to Boundaries:        -0.807 kW
       Mesh    2
       Max CFL number:  0.44E+00 at (1,15,18)
       Max divergence:  0.13E+02 at (2,11,4)
       Min divergence: -0.30E+01 at (4,12,8)
       Max VN number:   0.64E-01 at (1,15,18)
       Total Heat Release Rate:              4.291 kW
       Radiation Loss to Boundaries:        -0.731 kW
       Mesh    3
       Max CFL number:  0.50E+00 at (15,1,20)
       Max divergence:  0.11E+02 at (11,2,4)
       Min divergence: -0.38E+01 at (14,2,19)
       Max VN number:   0.72E-01 at (15,1,20)
       Total Heat Release Rate:              3.772 kW
       Radiation Loss to Boundaries:        -0.744 kW
       Mesh    4
       Max CFL number:  0.50E+00 at (1,1,20)
       Max divergence:  0.11E+02 at (1,1,18)
       Min divergence: -0.39E+01 at (2,5,9)
       Max VN number:   0.68E-01 at (2,2,19)
       Total Heat Release Rate:              4.086 kW
       Radiation Loss to Boundaries:        -0.784 kW
       Mesh    5
       Max CFL number:  0.75E+00 at (15,15,16)
       Max divergence:  0.12E+02 at (14,14,16)
       Min divergence: -0.67E+01 at (15,15,16)
       Max VN number:   0.10E+00 at (15,15,15)
       Total Heat Release Rate:              0.362 kW
       Radiation Loss to Boundaries:        -0.139 kW
       Mesh    6
       Max CFL number:  0.88E+00 at (1,15,17)
       Max divergence:  0.11E+02 at (3,11,18)
       Min divergence: -0.84E+01 at (6,12,19)
       Max VN number:   0.13E+00 at (3,11,18)
       Total Heat Release Rate:              0.552 kW
       Radiation Loss to Boundaries:        -0.322 kW
       Mesh    7
       Max CFL number:  0.71E+00 at (14,2,17)
       Max divergence:  0.83E+01 at (14,2,18)
       Min divergence: -0.91E+01 at (14,1,17)
       Max VN number:   0.11E+00 at (14,2,16)
       Total Heat Release Rate:              0.154 kW
       Radiation Loss to Boundaries:        -0.082 kW
       Mesh    8
       Max CFL number:  0.95E+00 at (1,1,20)
       Max divergence:  0.10E+02 at (1,1,1)
       Min divergence: -0.95E+01 at (1,1,19)
       Max VN number:   0.19E+00 at (1,1,19)
       Total Heat Release Rate:              0.384 kW
       Radiation Loss to Boundaries:        -0.179 kW
 
       Time Step   30700   August 17, 2023  13:01:38
       Step Size:    0.191E-02 s, Total Time:      59.73 s
       Pressure Iterations: 9
       Maximum Velocity Error:  0.92E-03 on Mesh 5 at (15,15,20)
       Maximum Pressure Error:  0.36E+04 on Mesh 7 at (15,4,7)
       ---------------------------------------------------------------
       Mesh    1
       Max CFL number:  0.55E+00 at (14,13,14)
       Max divergence:  0.25E+02 at (15,15,19)
       Min divergence: -0.47E+01 at (12,14,20)
       Max VN number:   0.10E+00 at (14,13,15)
       Total Heat Release Rate:              5.890 kW
       Radiation Loss to Boundaries:        -1.134 kW
       Mesh    2
       Max CFL number:  0.55E+00 at (2,14,17)
       Max divergence:  0.23E+02 at (3,15,14)
       Min divergence: -0.57E+01 at (4,12,20)
       Max VN number:   0.13E+00 at (1,13,18)
       Total Heat Release Rate:              6.218 kW
       Radiation Loss to Boundaries:        -1.099 kW
       Mesh    3
       Max CFL number:  0.55E+00 at (13,1,18)
       Max divergence:  0.23E+02 at (13,2,19)
       Min divergence: -0.51E+01 at (12,1,18)
       Max VN number:   0.12E+00 at (13,1,19)
       Total Heat Release Rate:              5.351 kW
       Radiation Loss to Boundaries:        -1.220 kW
       Mesh    4
       Max CFL number:  0.53E+00 at (1,4,20)
       Max divergence:  0.19E+02 at (2,1,14)
       Min divergence: -0.76E+01 at (3,3,16)
       Max VN number:   0.98E-01 at (2,3,16)
       Total Heat Release Rate:              5.568 kW
       Radiation Loss to Boundaries:        -1.035 kW
       Mesh    5
       Max CFL number:  0.65E+00 at (15,15,18)
       Max divergence:  0.73E+01 at (12,13,1)
       Min divergence: -0.76E+01 at (14,15,3)
       Max VN number:   0.12E+00 at (13,15,2)
       Total Heat Release Rate:              0.188 kW
       Radiation Loss to Boundaries:        -0.053 kW
       Mesh    6
       Max CFL number:  0.62E+00 at (1,15,20)
       Max divergence:  0.50E+01 at (1,15,1)
       Min divergence: -0.47E+01 at (3,15,2)
       Max VN number:   0.86E-01 at (3,14,5)
       Total Heat Release Rate:              0.034 kW
       Mesh    7
       Max CFL number:  0.92E+00 at (15,2,17)
       Max divergence:  0.20E+02 at (15,3,17)
       Min divergence: -0.91E+01 at (15,2,16)
       Max VN number:   0.15E+00 at (15,2,16)
       Total Heat Release Rate:              1.206 kW
       Radiation Loss to Boundaries:        -0.459 kW
       Mesh    8
       Max CFL number:  0.78E+00 at (1,2,18)
       Max divergence:  0.11E+02 at (2,3,17)
       Min divergence: -0.19E+02 at (1,3,17)
       Max VN number:   0.18E+00 at (1,3,17)
       Total Heat Release Rate:              0.545 kW
       Radiation Loss to Boundaries:        -0.280 kW
 
       Time Step   30800   August 17, 2023  13:01:47
       Step Size:    0.164E-02 s, Total Time:      59.91 s
       Pressure Iterations: 10
       Maximum Velocity Error:  0.72E-03 on Mesh 6 at (2,15,13)
       Maximum Pressure Error:  0.60E+04 on Mesh 8 at (3,1,19)
       ---------------------------------------------------------------
       Mesh    1
       Max CFL number:  0.46E+00 at (15,15,20)
       Max divergence:  0.14E+02 at (15,13,7)
       Min divergence: -0.38E+01 at (15,15,20)
       Max VN number:   0.65E-01 at (14,15,19)
       Total Heat Release Rate:              4.338 kW
       Radiation Loss to Boundaries:        -0.799 kW
       Mesh    2
       Max CFL number:  0.51E+00 at (1,15,20)
       Max divergence:  0.13E+02 at (1,15,14)
       Min divergence: -0.34E+01 at (3,14,20)
       Max VN number:   0.65E-01 at (1,15,19)
       Total Heat Release Rate:              4.438 kW
       Radiation Loss to Boundaries:        -0.809 kW
       Mesh    3
       Max CFL number:  0.52E+00 at (15,1,20)
       Max divergence:  0.13E+02 at (11,1,4)
       Min divergence: -0.40E+01 at (14,1,19)
       Max VN number:   0.79E-01 at (14,1,18)
       Total Heat Release Rate:              3.961 kW
       Radiation Loss to Boundaries:        -0.790 kW
       Mesh    4
       Max CFL number:  0.50E+00 at (1,2,20)
       Max divergence:  0.10E+02 at (4,6,3)
       Min divergence: -0.35E+01 at (1,4,9)
       Max VN number:   0.78E-01 at (1,2,20)
       Total Heat Release Rate:              3.641 kW
       Radiation Loss to Boundaries:        -0.727 kW
       Mesh    5
       Max CFL number:  0.67E+00 at (14,15,19)
       Max divergence:  0.90E+01 at (15,14,2)
       Min divergence: -0.78E+01 at (14,11,12)
       Max VN number:   0.12E+00 at (14,14,18)
       Total Heat Release Rate:              0.166 kW
       Radiation Loss to Boundaries:        -0.052 kW
       Mesh    6
       Max CFL number:  0.82E+00 at (2,15,16)
       Max divergence:  0.76E+01 at (2,12,10)
       Min divergence: -0.72E+01 at (1,15,4)
       Max VN number:   0.13E+00 at (3,15,19)
       Total Heat Release Rate:              0.402 kW
       Radiation Loss to Boundaries:        -0.263 kW
       Mesh    7
       Max CFL number:  0.66E+00 at (15,1,16)
       Max divergence:  0.82E+01 at (11,1,19)
       Min divergence: -0.61E+01 at (12,2,18)
       Max VN number:   0.11E+00 at (12,2,17)
       Total Heat Release Rate:              0.122 kW
       Radiation Loss to Boundaries:        -0.103 kW
       Mesh    8
       Max CFL number:  0.82E+00 at (2,1,18)
       Max divergence:  0.93E+01 at (2,2,20)
       Min divergence: -0.84E+01 at (3,1,19)
       Max VN number:   0.16E+00 at (3,1,18)
       Total Heat Release Rate:              0.218 kW
       Radiation Loss to Boundaries:        -0.127 kW
 
       Time Step   30851   August 17, 2023  13:01:51
       Step Size:    0.591E-03 s, Total Time:      60.00 s
       Pressure Iterations: 19
       Maximum Velocity Error:  0.95E-03 on Mesh 1 at (15,15,3)
       Maximum Pressure Error:  0.15E+04 on Mesh 1 at (14,12,5)
       ---------------------------------------------------------------
       Mesh    1
       Max CFL number:  0.15E+00 at (13,15,20)
       Max divergence:  0.19E+02 at (15,12,5)
       Min divergence: -0.62E+01 at (12,14,14)
       Max VN number:   0.25E-01 at (15,14,18)
       Total Heat Release Rate:              4.986 kW
       Radiation Loss to Boundaries:        -0.953 kW
       Mesh    2
       Max CFL number:  0.14E+00 at (1,15,20)
       Max divergence:  0.15E+02 at (3,13,4)
       Min divergence: -0.42E+01 at (1,12,10)
       Max VN number:   0.25E-01 at (3,15,18)
       Total Heat Release Rate:              4.547 kW
       Radiation Loss to Boundaries:        -0.840 kW
       Mesh    3
       Max CFL number:  0.17E+00 at (14,1,20)
       Max divergence:  0.15E+02 at (12,4,4)
       Min divergence: -0.36E+01 at (15,3,15)
       Max VN number:   0.25E-01 at (14,2,20)
       Total Heat Release Rate:              4.799 kW
       Radiation Loss to Boundaries:        -1.067 kW
       Mesh    4
       Max CFL number:  0.15E+00 at (1,1,17)
       Max divergence:  0.13E+02 at (3,3,4)
       Min divergence: -0.42E+01 at (1,4,15)
       Max VN number:   0.29E-01 at (2,1,19)
       Total Heat Release Rate:              4.648 kW
       Radiation Loss to Boundaries:        -1.045 kW
       Mesh    5
       Max CFL number:  0.19E+00 at (15,15,19)
       Max divergence:  0.55E+01 at (13,15,7)
       Min divergence: -0.71E+01 at (15,15,8)
       Max VN number:   0.32E-01 at (15,15,18)
       Total Heat Release Rate:              0.125 kW
       Radiation Loss to Boundaries:        -0.077 kW
       Mesh    6
       Max CFL number:  0.21E+00 at (4,15,20)
       Max divergence:  0.53E+01 at (1,14,1)
       Min divergence: -0.62E+01 at (1,15,2)
       Max VN number:   0.34E-01 at (3,13,18)
       Total Heat Release Rate:              0.095 kW
       Radiation Loss to Boundaries:        -0.038 kW
       Mesh    7
       Max CFL number:  0.19E+00 at (15,1,10)
       Max divergence:  0.12E+02 at (14,2,7)
       Min divergence: -0.79E+01 at (14,1,7)
       Max VN number:   0.34E-01 at (15,1,14)
       Total Heat Release Rate:              0.151 kW
       Radiation Loss to Boundaries:        -0.098 kW
       Mesh    8
       Max CFL number:  0.23E+00 at (2,1,20)
       Max divergence:  0.15E+02 at (1,2,1)
       Min divergence: -0.23E+01 at (1,1,1)
       Max VN number:   0.31E-01 at (1,2,1)
       Total Heat Release Rate:              0.029 kW
       Radiation Loss to Boundaries:        -0.008 kW
 


 Time Stepping Wall Clock Time (s):     2597.753
 Total Elapsed Wall Clock Time (s):     2604.805

STOP: FDS completed successfully (CHID: Waterloo_Methanol_GEOM_Prescribed_2cm_cat)
