
 Fire Dynamics Simulator

 Current Date     : August 16, 2023  16:59:32
 Revision         : FDS-6.8.0-564-g879930a-master
 Revision Date    : Wed Aug 16 13:01:02 2023 -0400
 Compiler         : ifort version 2021.7.1
 Compilation Date : Aug 16, 2023 16:46:52

 MPI Enabled;    Number of MPI Processes:      64
 OpenMP Disabled

 MPI version: 3.1
 MPI library version: Intel(R) MPI Library 2021.7 for Linux* OS


 Job TITLE        : FM 15 cm ethylene burner
 Job ID string    : FM_15cm_Burner_C2H4_19p0_5mm


 Miscellaneous Parameters

   Simulation Start Time (s)          0.0
   Simulation End Time (s)           20.0
   Background Pressure (Pa)     101325.00
   Ambient Temperature (C)          20.00

   3D Cartesian
   LES Calculation
   Eddy Viscosity Model:  Deardorff (C_DEARDORFF = 0.10)
   Surface side wall Eddy Viscosity Model:  WALE (C_WALE = 0.60)
   Surface wall Eddy Viscosity Model:  WALE (C_WALE = 0.60)
   Surface burner Eddy Viscosity Model:  WALE (C_WALE = 0.60)
   Surface coflow Eddy Viscosity Model:  WALE (C_WALE = 0.60)
   Turbulent Prandtl Number:         0.50
   Turbulent Schmidt Number:         0.50


 Pressure solver information

   Solver:                          ULMAT
   Velocity tolerance (m/s):    2.500E-03
   Press eqn res tol (1/s^2):   8.000E+05
   Max pressure iterations:            10


 Mass Fraction Transformation Matrix to Convert Species Mixtures (Columns) to Primitive Species (Rows)

                         AIR       ETHYLENE  INTERMED  PRODUCTS
   NITROGEN              0.783721  0.000000  0.702935  0.736884
   OXYGEN                0.209746  0.000000  0.000000  0.000000
   CARBON DIOXIDE        0.000591  0.000000  0.000530  0.177427
   WATER VAPOR           0.005941  0.000000  0.137722  0.082342
   CARBON MONOXIDE       0.000000  0.000000  0.123507  0.000777
   SOOT                  0.000000  0.000000  0.035306  0.002570
   HYDROGEN              0.000000  0.000000  0.000000  0.000000
   HYDROGEN CYANIDE      0.000000  0.000000  0.000000  0.000000
   ETHYLENE              0.000000  1.000000  0.000000  0.000000


 Primitive Species Information

   NITROGEN
   Gas Species
   Molecular Weight (g/mol)                28.01340
   Ambient Density (kg/m^3)                1.165
           Enthalpy of Formation (J/kg)  0.000E+00

   OXYGEN
   Gas Species
   Molecular Weight (g/mol)                31.99880
   Ambient Density (kg/m^3)                1.330
           Enthalpy of Formation (J/kg)  0.000E+00

   CARBON DIOXIDE
   Gas Species
   Molecular Weight (g/mol)                44.00950
   Ambient Density (kg/m^3)                1.830
           Enthalpy of Formation (J/kg) -8.941E+06

   WATER VAPOR
   Gas Species
   Molecular Weight (g/mol)                18.01528
   Ambient Density (kg/m^3)                0.749
           Enthalpy of Formation (J/kg) -1.342E+07

   CARBON MONOXIDE
   Gas Species
   Molecular Weight (g/mol)                28.01010
   Ambient Density (kg/m^3)                1.164
           Enthalpy of Formation (J/kg) -3.946E+06

   SOOT
   Gas Species
   Molecular Weight (g/mol)                12.01070
   Ambient Density (kg/m^3)                0.499
           Enthalpy of Formation (J/kg)  0.000E+00

   HYDROGEN
   Gas Species
   Molecular Weight (g/mol)                 2.01588
   Ambient Density (kg/m^3)                0.084
           Enthalpy of Formation (J/kg)  0.000E+00

   HYDROGEN CYANIDE
   Gas Species
   Molecular Weight (g/mol)                27.02534
   Ambient Density (kg/m^3)                1.123
           Enthalpy of Formation (J/kg)  4.924E+06

   ETHYLENE
   Gas Species
   Molecular Weight (g/mol)                28.05316
   Ambient Density (kg/m^3)                1.166
           Enthalpy of Formation (J/kg)  1.871E+06


 Tracked (Lumped) Species Information

   AIR
   Molecular Weight (g/mol)            28.67409
   Ambient Density (kg/m^3)            1.192
   Initial Mass Fraction               1.000
   Enthalpy of Formation (J/kg)     -8.504E+04

   Sub Species                    Mass Fraction     Mole Fraction
   NITROGEN                       7.837209E-01      8.022048E-01
   OXYGEN                         2.097464E-01      1.879535E-01
   CARBON DIOXIDE                 5.914650E-04      3.853650E-04
   WATER VAPOR                    5.941209E-03      9.456348E-03
 
     Viscosity (kg/m/s) Ambient,  293 K:  1.790E-05
                                  500 K:  2.602E-05
                                 1000 K:  4.108E-05
                                 1500 K:  5.349E-05
                                 2000 K:  6.450E-05
   Therm. Cond. (W/m/K) Ambient,  293 K:  2.555E-02
                                  500 K:  3.806E-02
                                 1000 K:  6.669E-02
                                 1500 K:  9.229E-02
                                 2000 K:  1.150E-01
        Enthalpy (J/kg) Ambient,  293 K: -9.013E+04
                                  500 K:  1.226E+05
                                 1000 K:  6.733E+05
                                 1500 K:  1.272E+06
                                 2000 K:  1.899E+06
    Spec. Heat (J/kg/K) Ambient,  293 K:  1.019E+03
                                  500 K:  1.044E+03
                                 1000 K:  1.158E+03
                                 1500 K:  1.231E+03
                                 2000 K:  1.272E+03
   Diff. Coeff. (m^2/s) Ambient,  293 K:  1.990E-05
                                  500 K:  4.959E-05
                                 1000 K:  1.579E-04
                                 1500 K:  3.093E-04
                                 2000 K:  4.982E-04
 Gibbs Energy Amb. (kJ/mol),  293 K: -5.864E+01
                                  500 K: -1.006E+02
                                 1000 K: -2.114E+02
                                 1500 K: -3.308E+02
                                 2000 K: -4.561E+02

   ETHYLENE
   Molecular Weight (g/mol)            28.05316
   Ambient Density (kg/m^3)            1.166
   Initial Mass Fraction               0.000
   Enthalpy of Formation (J/kg)      1.871E+06

   Sub Species                    Mass Fraction     Mole Fraction
   ETHYLENE                       1.000000E+00      1.000000E+00
 
     Viscosity (kg/m/s) Ambient,  293 K:  9.987E-06
                                  500 K:  1.608E-05
                                 1000 K:  2.724E-05
                                 1500 K:  3.595E-05
                                 2000 K:  4.345E-05
   Therm. Cond. (W/m/K) Ambient,  293 K:  1.819E-02
                                  500 K:  4.313E-02
                                 1000 K:  1.099E-01
                                 1500 K:  1.699E-01
                                 2000 K:  2.210E-01
        Enthalpy (J/kg) Ambient,  293 K:  1.864E+06
                                  500 K:  2.252E+06
                                 1000 K:  3.678E+06
                                 1500 K:  5.511E+06
                                 2000 K:  7.554E+06
    Spec. Heat (J/kg/K) Ambient,  293 K:  1.511E+03
                                  500 K:  2.227E+03
                                 1000 K:  3.348E+03
                                 1500 K:  3.922E+03
                                 2000 K:  4.221E+03
   Diff. Coeff. (m^2/s) Ambient,  293 K:  1.552E-05
                                  500 K:  3.994E-05
                                 1000 K:  1.298E-04
                                 1500 K:  2.553E-04
                                 2000 K:  4.114E-04
 Gibbs Energy Amb. (kJ/mol),  293 K: -1.176E+01
                                  500 K: -5.994E+01
                                 1000 K: -1.972E+02
                                 1500 K: -3.582E+02
                                 2000 K: -5.377E+02

   INTERMEDIATE PRODUCTS
   Molecular Weight (g/mol)            24.93858
   Ambient Density (kg/m^3)            1.037
   Initial Mass Fraction               0.000
   Enthalpy of Formation (J/kg)     -2.341E+06

   Sub Species                    Mass Fraction     Mole Fraction
   NITROGEN                       7.029346E-01      6.257788E-01
   CARBON DIOXIDE                 5.304965E-04      3.006130E-04
   WATER VAPOR                    1.377219E-01      1.906486E-01
   CARBON MONOXIDE                1.235066E-01      1.099632E-01
   SOOT                           3.530634E-02      7.330879E-02
   HYDROGEN                       0.000000E+00      0.000000E+00
   HYDROGEN CYANIDE               0.000000E+00      0.000000E+00
 
     Viscosity (kg/m/s) Ambient,  293 K:  1.596E-05
                                  500 K:  2.350E-05
                                 1000 K:  3.828E-05
                                 1500 K:  5.069E-05
                                 2000 K:  6.165E-05
   Therm. Cond. (W/m/K) Ambient,  293 K:  2.369E-02
                                  500 K:  3.641E-02
                                 1000 K:  6.780E-02
                                 1500 K:  9.786E-02
                                 2000 K:  1.251E-01
        Enthalpy (J/kg) Ambient,  293 K: -2.347E+06
                                  500 K: -2.106E+06
                                 1000 K: -1.473E+06
                                 1500 K: -7.682E+05
                                 2000 K: -1.814E+04
    Spec. Heat (J/kg/K) Ambient,  293 K:  1.141E+03
                                  500 K:  1.186E+03
                                 1000 K:  1.347E+03
                                 1500 K:  1.462E+03
                                 2000 K:  1.533E+03
   Diff. Coeff. (m^2/s) Ambient,  293 K:  2.049E-05
                                  500 K:  5.202E-05
                                 1000 K:  1.681E-04
                                 1500 K:  3.306E-04
                                 2000 K:  5.333E-04
 Gibbs Energy Amb. (kJ/mol),  293 K: -1.015E+02
                                  500 K: -1.415E+02
                                 1000 K: -2.478E+02
                                 1500 K: -3.627E+02
                                 2000 K: -4.838E+02

   PRODUCTS
   Molecular Weight (g/mol)            28.45060
   Ambient Density (kg/m^3)            1.183
   Initial Mass Fraction               0.000
   Enthalpy of Formation (J/kg)     -2.695E+06

   Sub Species                    Mass Fraction     Mole Fraction
   NITROGEN                       7.368843E-01      7.483847E-01
   CARBON DIOXIDE                 1.774267E-01      1.147002E-01
   WATER VAPOR                    8.234226E-02      1.300389E-01
   CARBON MONOXIDE                7.769035E-04      7.891214E-04
   SOOT                           2.569758E-03      6.087167E-03
   HYDROGEN CYANIDE               0.000000E+00      0.000000E+00
 
     Viscosity (kg/m/s) Ambient,  293 K:  1.629E-05
                                  500 K:  2.407E-05
                                 1000 K:  3.900E-05
                                 1500 K:  5.137E-05
                                 2000 K:  6.228E-05
   Therm. Cond. (W/m/K) Ambient,  293 K:  2.353E-02
                                  500 K:  3.622E-02
                                 1000 K:  6.663E-02
                                 1500 K:  9.500E-02
                                 2000 K:  1.203E-01
        Enthalpy (J/kg) Ambient,  293 K: -2.700E+06
                                  500 K: -2.474E+06
                                 1000 K: -1.874E+06
                                 1500 K: -1.209E+06
                                 2000 K: -5.065E+05
    Spec. Heat (J/kg/K) Ambient,  293 K:  1.071E+03
                                  500 K:  1.123E+03
                                 1000 K:  1.273E+03
                                 1500 K:  1.374E+03
                                 2000 K:  1.432E+03
   Diff. Coeff. (m^2/s) Ambient,  293 K:  1.950E-05
                                  500 K:  4.932E-05
                                 1000 K:  1.588E-04
                                 1500 K:  3.121E-04
                                 2000 K:  5.033E-04
 Gibbs Energy Amb. (kJ/mol),  293 K: -1.469E+02
                                  500 K: -1.890E+02
                                 1000 K: -3.012E+02
                                 1500 K: -4.230E+02
                                 2000 K: -5.516E+02


 Gas Phase Reaction Information

   Reaction 1

      Priority:                                                               1

      Fuel                                           Heat of Combustion (kJ/kg)
      ETHYLENE                                                       23840.2460
      2-step reaction,  Total Heat of Combustion                     45626.4386

      Primitive Species Stoich. Coeff.
      Species ID                                                          Molar
      NITROGEN                                                         0.000000
      OXYGEN                                                          -1.600000
      WATER VAPOR                                                      2.000000
      CARBON MONOXIDE                                                  1.200000
      SOOT                                                             0.800000
      ETHYLENE                                                        -1.000000

      Tracked (Lumped) Species Stoich. Coeff.
      Species ID                                             Molar         Mass
      AIR                                                -8.512743    -8.701164
      ETHYLENE                                           -1.000000    -1.000000
      INTERMEDIATE PRODUCTS                              10.912743     9.701164

      Reaction Kinetics

      Fast chemistry

      ODE Solver:  EXPLICIT EULER

      Extinction Model:  EXTINCTION 2
      Auto-Ignition Temperature (C):            -273.1
      Critical Flame Temperature (C):           1337.0

      Prescribed Radiative Fraction:             0.000

   Reaction 2

      Priority:                                                               2

      Fuel                                           Heat of Combustion (kJ/kg)
      INTERMEDIATE PRODUCTS                                           2245.7297

      Primitive Species Stoich. Coeff.
      Species ID                                                          Molar
      OXYGEN                                                          -0.118490
      CARBON DIOXIDE                                                   0.172875
      CARBON MONOXIDE                                                 -0.108770
      SOOT                                                            -0.064105

      Tracked (Lumped) Species Stoich. Coeff.
      Species ID                                             Molar         Mass
      AIR                                                -0.630424    -0.724854
      INTERMEDIATE PRODUCTS                              -1.000000    -1.000000
      PRODUCTS                                            1.511934     1.724854

      Reaction Kinetics

      Fast chemistry

      ODE Solver:  EXPLICIT EULER

      Prescribed Radiative Fraction:             0.000


 Material Information


 Surface Conditions

   0 INERT

   1 side wall (DEFAULT)

   2 wall

   3 burner
     HRR Per Unit Area (kW/m2)        826.6
     ETHYLENE Mass Flux (kg/s/m2)   1.812E-02

   4 coflow
     Normal Velocity (m/s)        -0.041
     AIR Mass Fraction         1.000

   5 OPEN
     Passive Vent to Atmosphere

   6 MIRROR
     Symmetry Plane

   7 INTERPOLATED

   8 PERIODIC

   9 HVAC

  10 MASSLESS TRACER

  11 DROPLET

  12 MASSLESS TARGET

  13 PERIODIC FLOW ONLY


 Lagrangian Particle Classes


 PROPerty Information

   1 T_hist
     Smokeview ID                sensor

   2 soot_hist
     Smokeview ID                sensor


 Cut-off Density and Temperature

    Minimum Temperature:  -259.1 C
    Maximum Temperature:  2726.8 C
    Minimum Density:  1.192E-01 kg/m3
    Maximum Density:  4.992E+01 kg/m3


 Device Information

   1 ID: RHRRPUL
     QUANTITY: RHRRPUL
     Coordinates (X,Y,Z):   -5.000000E-05   -5.000000E-05    5.000000E-03
     TEMPORAL STATISTIC: RUNNING AVERAGE
   2 ID: RHRRPUL
     QUANTITY: RHRRPUL
     Coordinates (X,Y,Z):   -5.000000E-05   -5.000000E-05    9.969697E-03
     TEMPORAL STATISTIC: RUNNING AVERAGE
   3 ID: RHRRPUL
     QUANTITY: RHRRPUL
     Coordinates (X,Y,Z):   -5.000000E-05   -5.000000E-05    1.493939E-02
     TEMPORAL STATISTIC: RUNNING AVERAGE
   4 ID: RHRRPUL
     QUANTITY: RHRRPUL
     Coordinates (X,Y,Z):   -5.000000E-05   -5.000000E-05    1.990909E-02
     TEMPORAL STATISTIC: RUNNING AVERAGE
   5 ID: RHRRPUL
     QUANTITY: RHRRPUL
     Coordinates (X,Y,Z):   -5.000000E-05   -5.000000E-05    2.487879E-02
     TEMPORAL STATISTIC: RUNNING AVERAGE
   6 ID: RHRRPUL
     QUANTITY: RHRRPUL
     Coordinates (X,Y,Z):   -5.000000E-05   -5.000000E-05    2.984848E-02
     TEMPORAL STATISTIC: RUNNING AVERAGE
   7 ID: RHRRPUL
     QUANTITY: RHRRPUL
     Coordinates (X,Y,Z):   -5.000000E-05   -5.000000E-05    3.481818E-02
     TEMPORAL STATISTIC: RUNNING AVERAGE
   8 ID: RHRRPUL
     QUANTITY: RHRRPUL
     Coordinates (X,Y,Z):   -5.000000E-05   -5.000000E-05    3.978788E-02
     TEMPORAL STATISTIC: RUNNING AVERAGE
   9 ID: RHRRPUL
     QUANTITY: RHRRPUL
     Coordinates (X,Y,Z):   -5.000000E-05   -5.000000E-05    4.475758E-02
     TEMPORAL STATISTIC: RUNNING AVERAGE
  10 ID: RHRRPUL
     QUANTITY: RHRRPUL
     Coordinates (X,Y,Z):   -5.000000E-05   -5.000000E-05    4.972727E-02
     TEMPORAL STATISTIC: RUNNING AVERAGE
  11 ID: RHRRPUL
     QUANTITY: RHRRPUL
     Coordinates (X,Y,Z):   -5.000000E-05   -5.000000E-05    5.469697E-02
     TEMPORAL STATISTIC: RUNNING AVERAGE
  12 ID: RHRRPUL
     QUANTITY: RHRRPUL
     Coordinates (X,Y,Z):   -5.000000E-05   -5.000000E-05    5.966667E-02
     TEMPORAL STATISTIC: RUNNING AVERAGE
  13 ID: RHRRPUL
     QUANTITY: RHRRPUL
     Coordinates (X,Y,Z):   -5.000000E-05   -5.000000E-05    6.463636E-02
     TEMPORAL STATISTIC: RUNNING AVERAGE
  14 ID: RHRRPUL
     QUANTITY: RHRRPUL
     Coordinates (X,Y,Z):   -5.000000E-05   -5.000000E-05    6.960606E-02
     TEMPORAL STATISTIC: RUNNING AVERAGE
  15 ID: RHRRPUL
     QUANTITY: RHRRPUL
     Coordinates (X,Y,Z):   -5.000000E-05   -5.000000E-05    7.457576E-02
     TEMPORAL STATISTIC: RUNNING AVERAGE
  16 ID: RHRRPUL
     QUANTITY: RHRRPUL
     Coordinates (X,Y,Z):   -5.000000E-05   -5.000000E-05    7.954545E-02
     TEMPORAL STATISTIC: RUNNING AVERAGE
  17 ID: RHRRPUL
     QUANTITY: RHRRPUL
     Coordinates (X,Y,Z):   -5.000000E-05   -5.000000E-05    8.451515E-02
     TEMPORAL STATISTIC: RUNNING AVERAGE
  18 ID: RHRRPUL
     QUANTITY: RHRRPUL
     Coordinates (X,Y,Z):   -5.000000E-05   -5.000000E-05    8.948485E-02
     TEMPORAL STATISTIC: RUNNING AVERAGE
  19 ID: RHRRPUL
     QUANTITY: RHRRPUL
     Coordinates (X,Y,Z):   -5.000000E-05   -5.000000E-05    9.445455E-02
     TEMPORAL STATISTIC: RUNNING AVERAGE
  20 ID: RHRRPUL
     QUANTITY: RHRRPUL
     Coordinates (X,Y,Z):   -5.000000E-05   -5.000000E-05    9.942424E-02
     TEMPORAL STATISTIC: RUNNING AVERAGE
  21 ID: RHRRPUL
     QUANTITY: RHRRPUL
     Coordinates (X,Y,Z):   -5.000000E-05   -5.000000E-05    1.043939E-01
     TEMPORAL STATISTIC: RUNNING AVERAGE
  22 ID: RHRRPUL
     QUANTITY: RHRRPUL
     Coordinates (X,Y,Z):   -5.000000E-05   -5.000000E-05    1.093636E-01
     TEMPORAL STATISTIC: RUNNING AVERAGE
  23 ID: RHRRPUL
     QUANTITY: RHRRPUL
     Coordinates (X,Y,Z):   -5.000000E-05   -5.000000E-05    1.143333E-01
     TEMPORAL STATISTIC: RUNNING AVERAGE
  24 ID: RHRRPUL
     QUANTITY: RHRRPUL
     Coordinates (X,Y,Z):   -5.000000E-05   -5.000000E-05    1.193030E-01
     TEMPORAL STATISTIC: RUNNING AVERAGE
  25 ID: RHRRPUL
     QUANTITY: RHRRPUL
     Coordinates (X,Y,Z):   -5.000000E-05   -5.000000E-05    1.242727E-01
     TEMPORAL STATISTIC: RUNNING AVERAGE
  26 ID: RHRRPUL
     QUANTITY: RHRRPUL
     Coordinates (X,Y,Z):   -5.000000E-05   -5.000000E-05    1.292424E-01
     TEMPORAL STATISTIC: RUNNING AVERAGE
  27 ID: RHRRPUL
     QUANTITY: RHRRPUL
     Coordinates (X,Y,Z):   -5.000000E-05   -5.000000E-05    1.342121E-01
     TEMPORAL STATISTIC: RUNNING AVERAGE
  28 ID: RHRRPUL
     QUANTITY: RHRRPUL
     Coordinates (X,Y,Z):   -5.000000E-05   -5.000000E-05    1.391818E-01
     TEMPORAL STATISTIC: RUNNING AVERAGE
  29 ID: RHRRPUL
     QUANTITY: RHRRPUL
     Coordinates (X,Y,Z):   -5.000000E-05   -5.000000E-05    1.441515E-01
     TEMPORAL STATISTIC: RUNNING AVERAGE
  30 ID: RHRRPUL
     QUANTITY: RHRRPUL
     Coordinates (X,Y,Z):   -5.000000E-05   -5.000000E-05    1.491212E-01
     TEMPORAL STATISTIC: RUNNING AVERAGE
  31 ID: RHRRPUL
     QUANTITY: RHRRPUL
     Coordinates (X,Y,Z):   -5.000000E-05   -5.000000E-05    1.540909E-01
     TEMPORAL STATISTIC: RUNNING AVERAGE
  32 ID: RHRRPUL
     QUANTITY: RHRRPUL
     Coordinates (X,Y,Z):   -5.000000E-05   -5.000000E-05    1.590606E-01
     TEMPORAL STATISTIC: RUNNING AVERAGE
  33 ID: RHRRPUL
     QUANTITY: RHRRPUL
     Coordinates (X,Y,Z):   -5.000000E-05   -5.000000E-05    1.640303E-01
     TEMPORAL STATISTIC: RUNNING AVERAGE
  34 ID: RHRRPUL
     QUANTITY: RHRRPUL
     Coordinates (X,Y,Z):   -5.000000E-05   -5.000000E-05    1.690000E-01
     TEMPORAL STATISTIC: RUNNING AVERAGE
  35 ID: RHRRPUL
     QUANTITY: RHRRPUL
     Coordinates (X,Y,Z):   -5.000000E-05   -5.000000E-05    1.739697E-01
     TEMPORAL STATISTIC: RUNNING AVERAGE
  36 ID: RHRRPUL
     QUANTITY: RHRRPUL
     Coordinates (X,Y,Z):   -5.000000E-05   -5.000000E-05    1.789394E-01
     TEMPORAL STATISTIC: RUNNING AVERAGE
  37 ID: RHRRPUL
     QUANTITY: RHRRPUL
     Coordinates (X,Y,Z):   -5.000000E-05   -5.000000E-05    1.839091E-01
     TEMPORAL STATISTIC: RUNNING AVERAGE
  38 ID: RHRRPUL
     QUANTITY: RHRRPUL
     Coordinates (X,Y,Z):   -5.000000E-05   -5.000000E-05    1.888788E-01
     TEMPORAL STATISTIC: RUNNING AVERAGE
  39 ID: RHRRPUL
     QUANTITY: RHRRPUL
     Coordinates (X,Y,Z):   -5.000000E-05   -5.000000E-05    1.938485E-01
     TEMPORAL STATISTIC: RUNNING AVERAGE
  40 ID: RHRRPUL
     QUANTITY: RHRRPUL
     Coordinates (X,Y,Z):   -5.000000E-05   -5.000000E-05    1.988182E-01
     TEMPORAL STATISTIC: RUNNING AVERAGE
  41 ID: RHRRPUL
     QUANTITY: RHRRPUL
     Coordinates (X,Y,Z):   -5.000000E-05   -5.000000E-05    2.037879E-01
     TEMPORAL STATISTIC: RUNNING AVERAGE
  42 ID: RHRRPUL
     QUANTITY: RHRRPUL
     Coordinates (X,Y,Z):   -5.000000E-05   -5.000000E-05    2.087576E-01
     TEMPORAL STATISTIC: RUNNING AVERAGE
  43 ID: RHRRPUL
     QUANTITY: RHRRPUL
     Coordinates (X,Y,Z):   -5.000000E-05   -5.000000E-05    2.137273E-01
     TEMPORAL STATISTIC: RUNNING AVERAGE
  44 ID: RHRRPUL
     QUANTITY: RHRRPUL
     Coordinates (X,Y,Z):   -5.000000E-05   -5.000000E-05    2.186970E-01
     TEMPORAL STATISTIC: RUNNING AVERAGE
  45 ID: RHRRPUL
     QUANTITY: RHRRPUL
     Coordinates (X,Y,Z):   -5.000000E-05   -5.000000E-05    2.236667E-01
     TEMPORAL STATISTIC: RUNNING AVERAGE
  46 ID: RHRRPUL
     QUANTITY: RHRRPUL
     Coordinates (X,Y,Z):   -5.000000E-05   -5.000000E-05    2.286364E-01
     TEMPORAL STATISTIC: RUNNING AVERAGE
  47 ID: RHRRPUL
     QUANTITY: RHRRPUL
     Coordinates (X,Y,Z):   -5.000000E-05   -5.000000E-05    2.336061E-01
     TEMPORAL STATISTIC: RUNNING AVERAGE
  48 ID: RHRRPUL
     QUANTITY: RHRRPUL
     Coordinates (X,Y,Z):   -5.000000E-05   -5.000000E-05    2.385758E-01
     TEMPORAL STATISTIC: RUNNING AVERAGE
  49 ID: RHRRPUL
     QUANTITY: RHRRPUL
     Coordinates (X,Y,Z):   -5.000000E-05   -5.000000E-05    2.435455E-01
     TEMPORAL STATISTIC: RUNNING AVERAGE
  50 ID: RHRRPUL
     QUANTITY: RHRRPUL
     Coordinates (X,Y,Z):   -5.000000E-05   -5.000000E-05    2.485152E-01
     TEMPORAL STATISTIC: RUNNING AVERAGE
  51 ID: RHRRPUL
     QUANTITY: RHRRPUL
     Coordinates (X,Y,Z):   -5.000000E-05   -5.000000E-05    2.534848E-01
     TEMPORAL STATISTIC: RUNNING AVERAGE
  52 ID: RHRRPUL
     QUANTITY: RHRRPUL
     Coordinates (X,Y,Z):   -5.000000E-05   -5.000000E-05    2.584545E-01
     TEMPORAL STATISTIC: RUNNING AVERAGE
  53 ID: RHRRPUL
     QUANTITY: RHRRPUL
     Coordinates (X,Y,Z):   -5.000000E-05   -5.000000E-05    2.634242E-01
     TEMPORAL STATISTIC: RUNNING AVERAGE
  54 ID: RHRRPUL
     QUANTITY: RHRRPUL
     Coordinates (X,Y,Z):   -5.000000E-05   -5.000000E-05    2.683939E-01
     TEMPORAL STATISTIC: RUNNING AVERAGE
  55 ID: RHRRPUL
     QUANTITY: RHRRPUL
     Coordinates (X,Y,Z):   -5.000000E-05   -5.000000E-05    2.733636E-01
     TEMPORAL STATISTIC: RUNNING AVERAGE
  56 ID: RHRRPUL
     QUANTITY: RHRRPUL
     Coordinates (X,Y,Z):   -5.000000E-05   -5.000000E-05    2.783333E-01
     TEMPORAL STATISTIC: RUNNING AVERAGE
  57 ID: RHRRPUL
     QUANTITY: RHRRPUL
     Coordinates (X,Y,Z):   -5.000000E-05   -5.000000E-05    2.833030E-01
     TEMPORAL STATISTIC: RUNNING AVERAGE
  58 ID: RHRRPUL
     QUANTITY: RHRRPUL
     Coordinates (X,Y,Z):   -5.000000E-05   -5.000000E-05    2.882727E-01
     TEMPORAL STATISTIC: RUNNING AVERAGE
  59 ID: RHRRPUL
     QUANTITY: RHRRPUL
     Coordinates (X,Y,Z):   -5.000000E-05   -5.000000E-05    2.932424E-01
     TEMPORAL STATISTIC: RUNNING AVERAGE
  60 ID: RHRRPUL
     QUANTITY: RHRRPUL
     Coordinates (X,Y,Z):   -5.000000E-05   -5.000000E-05    2.982121E-01
     TEMPORAL STATISTIC: RUNNING AVERAGE
  61 ID: RHRRPUL
     QUANTITY: RHRRPUL
     Coordinates (X,Y,Z):   -5.000000E-05   -5.000000E-05    3.031818E-01
     TEMPORAL STATISTIC: RUNNING AVERAGE
  62 ID: RHRRPUL
     QUANTITY: RHRRPUL
     Coordinates (X,Y,Z):   -5.000000E-05   -5.000000E-05    3.081515E-01
     TEMPORAL STATISTIC: RUNNING AVERAGE
  63 ID: RHRRPUL
     QUANTITY: RHRRPUL
     Coordinates (X,Y,Z):   -5.000000E-05   -5.000000E-05    3.131212E-01
     TEMPORAL STATISTIC: RUNNING AVERAGE
  64 ID: RHRRPUL
     QUANTITY: RHRRPUL
     Coordinates (X,Y,Z):   -5.000000E-05   -5.000000E-05    3.180909E-01
     TEMPORAL STATISTIC: RUNNING AVERAGE
  65 ID: RHRRPUL
     QUANTITY: RHRRPUL
     Coordinates (X,Y,Z):   -5.000000E-05   -5.000000E-05    3.230606E-01
     TEMPORAL STATISTIC: RUNNING AVERAGE
  66 ID: RHRRPUL
     QUANTITY: RHRRPUL
     Coordinates (X,Y,Z):   -5.000000E-05   -5.000000E-05    3.280303E-01
     TEMPORAL STATISTIC: RUNNING AVERAGE
  67 ID: RHRRPUL
     QUANTITY: RHRRPUL
     Coordinates (X,Y,Z):   -5.000000E-05   -5.000000E-05    3.330000E-01
     TEMPORAL STATISTIC: RUNNING AVERAGE
  68 ID: RHRRPUL
     QUANTITY: RHRRPUL
     Coordinates (X,Y,Z):   -5.000000E-05   -5.000000E-05    3.379697E-01
     TEMPORAL STATISTIC: RUNNING AVERAGE
  69 ID: RHRRPUL
     QUANTITY: RHRRPUL
     Coordinates (X,Y,Z):   -5.000000E-05   -5.000000E-05    3.429394E-01
     TEMPORAL STATISTIC: RUNNING AVERAGE
  70 ID: RHRRPUL
     QUANTITY: RHRRPUL
     Coordinates (X,Y,Z):   -5.000000E-05   -5.000000E-05    3.479091E-01
     TEMPORAL STATISTIC: RUNNING AVERAGE
  71 ID: RHRRPUL
     QUANTITY: RHRRPUL
     Coordinates (X,Y,Z):   -5.000000E-05   -5.000000E-05    3.528788E-01
     TEMPORAL STATISTIC: RUNNING AVERAGE
  72 ID: RHRRPUL
     QUANTITY: RHRRPUL
     Coordinates (X,Y,Z):   -5.000000E-05   -5.000000E-05    3.578485E-01
     TEMPORAL STATISTIC: RUNNING AVERAGE
  73 ID: RHRRPUL
     QUANTITY: RHRRPUL
     Coordinates (X,Y,Z):   -5.000000E-05   -5.000000E-05    3.628182E-01
     TEMPORAL STATISTIC: RUNNING AVERAGE
  74 ID: RHRRPUL
     QUANTITY: RHRRPUL
     Coordinates (X,Y,Z):   -5.000000E-05   -5.000000E-05    3.677879E-01
     TEMPORAL STATISTIC: RUNNING AVERAGE
  75 ID: RHRRPUL
     QUANTITY: RHRRPUL
     Coordinates (X,Y,Z):   -5.000000E-05   -5.000000E-05    3.727576E-01
     TEMPORAL STATISTIC: RUNNING AVERAGE
  76 ID: RHRRPUL
     QUANTITY: RHRRPUL
     Coordinates (X,Y,Z):   -5.000000E-05   -5.000000E-05    3.777273E-01
     TEMPORAL STATISTIC: RUNNING AVERAGE
  77 ID: RHRRPUL
     QUANTITY: RHRRPUL
     Coordinates (X,Y,Z):   -5.000000E-05   -5.000000E-05    3.826970E-01
     TEMPORAL STATISTIC: RUNNING AVERAGE
  78 ID: RHRRPUL
     QUANTITY: RHRRPUL
     Coordinates (X,Y,Z):   -5.000000E-05   -5.000000E-05    3.876667E-01
     TEMPORAL STATISTIC: RUNNING AVERAGE
  79 ID: RHRRPUL
     QUANTITY: RHRRPUL
     Coordinates (X,Y,Z):   -5.000000E-05   -5.000000E-05    3.926364E-01
     TEMPORAL STATISTIC: RUNNING AVERAGE
  80 ID: RHRRPUL
     QUANTITY: RHRRPUL
     Coordinates (X,Y,Z):   -5.000000E-05   -5.000000E-05    3.976061E-01
     TEMPORAL STATISTIC: RUNNING AVERAGE
  81 ID: RHRRPUL
     QUANTITY: RHRRPUL
     Coordinates (X,Y,Z):   -5.000000E-05   -5.000000E-05    4.025758E-01
     TEMPORAL STATISTIC: RUNNING AVERAGE
  82 ID: RHRRPUL
     QUANTITY: RHRRPUL
     Coordinates (X,Y,Z):   -5.000000E-05   -5.000000E-05    4.075455E-01
     TEMPORAL STATISTIC: RUNNING AVERAGE
  83 ID: RHRRPUL
     QUANTITY: RHRRPUL
     Coordinates (X,Y,Z):   -5.000000E-05   -5.000000E-05    4.125152E-01
     TEMPORAL STATISTIC: RUNNING AVERAGE
  84 ID: RHRRPUL
     QUANTITY: RHRRPUL
     Coordinates (X,Y,Z):   -5.000000E-05   -5.000000E-05    4.174848E-01
     TEMPORAL STATISTIC: RUNNING AVERAGE
  85 ID: RHRRPUL
     QUANTITY: RHRRPUL
     Coordinates (X,Y,Z):   -5.000000E-05   -5.000000E-05    4.224545E-01
     TEMPORAL STATISTIC: RUNNING AVERAGE
  86 ID: RHRRPUL
     QUANTITY: RHRRPUL
     Coordinates (X,Y,Z):   -5.000000E-05   -5.000000E-05    4.274242E-01
     TEMPORAL STATISTIC: RUNNING AVERAGE
  87 ID: RHRRPUL
     QUANTITY: RHRRPUL
     Coordinates (X,Y,Z):   -5.000000E-05   -5.000000E-05    4.323939E-01
     TEMPORAL STATISTIC: RUNNING AVERAGE
  88 ID: RHRRPUL
     QUANTITY: RHRRPUL
     Coordinates (X,Y,Z):   -5.000000E-05   -5.000000E-05    4.373636E-01
     TEMPORAL STATISTIC: RUNNING AVERAGE
  89 ID: RHRRPUL
     QUANTITY: RHRRPUL
     Coordinates (X,Y,Z):   -5.000000E-05   -5.000000E-05    4.423333E-01
     TEMPORAL STATISTIC: RUNNING AVERAGE
  90 ID: RHRRPUL
     QUANTITY: RHRRPUL
     Coordinates (X,Y,Z):   -5.000000E-05   -5.000000E-05    4.473030E-01
     TEMPORAL STATISTIC: RUNNING AVERAGE
  91 ID: RHRRPUL
     QUANTITY: RHRRPUL
     Coordinates (X,Y,Z):   -5.000000E-05   -5.000000E-05    4.522727E-01
     TEMPORAL STATISTIC: RUNNING AVERAGE
  92 ID: RHRRPUL
     QUANTITY: RHRRPUL
     Coordinates (X,Y,Z):   -5.000000E-05   -5.000000E-05    4.572424E-01
     TEMPORAL STATISTIC: RUNNING AVERAGE
  93 ID: RHRRPUL
     QUANTITY: RHRRPUL
     Coordinates (X,Y,Z):   -5.000000E-05   -5.000000E-05    4.622121E-01
     TEMPORAL STATISTIC: RUNNING AVERAGE
  94 ID: RHRRPUL
     QUANTITY: RHRRPUL
     Coordinates (X,Y,Z):   -5.000000E-05   -5.000000E-05    4.671818E-01
     TEMPORAL STATISTIC: RUNNING AVERAGE
  95 ID: RHRRPUL
     QUANTITY: RHRRPUL
     Coordinates (X,Y,Z):   -5.000000E-05   -5.000000E-05    4.721515E-01
     TEMPORAL STATISTIC: RUNNING AVERAGE
  96 ID: RHRRPUL
     QUANTITY: RHRRPUL
     Coordinates (X,Y,Z):   -5.000000E-05   -5.000000E-05    4.771212E-01
     TEMPORAL STATISTIC: RUNNING AVERAGE
  97 ID: RHRRPUL
     QUANTITY: RHRRPUL
     Coordinates (X,Y,Z):   -5.000000E-05   -5.000000E-05    4.820909E-01
     TEMPORAL STATISTIC: RUNNING AVERAGE
  98 ID: RHRRPUL
     QUANTITY: RHRRPUL
     Coordinates (X,Y,Z):   -5.000000E-05   -5.000000E-05    4.870606E-01
     TEMPORAL STATISTIC: RUNNING AVERAGE
  99 ID: RHRRPUL
     QUANTITY: RHRRPUL
     Coordinates (X,Y,Z):   -5.000000E-05   -5.000000E-05    4.920303E-01
     TEMPORAL STATISTIC: RUNNING AVERAGE
 100 ID: RHRRPUL
     QUANTITY: RHRRPUL
     Coordinates (X,Y,Z):   -5.000000E-05   -5.000000E-05    4.970000E-01
     TEMPORAL STATISTIC: RUNNING AVERAGE
 101 ID: RHRRPUL
     QUANTITY: RHRRPUL
     Coordinates (X,Y,Z):   -5.000000E-05   -5.000000E-05    5.019697E-01
     TEMPORAL STATISTIC: RUNNING AVERAGE
 102 ID: RHRRPUL
     QUANTITY: RHRRPUL
     Coordinates (X,Y,Z):   -5.000000E-05   -5.000000E-05    5.069394E-01
     TEMPORAL STATISTIC: RUNNING AVERAGE
 103 ID: RHRRPUL
     QUANTITY: RHRRPUL
     Coordinates (X,Y,Z):   -5.000000E-05   -5.000000E-05    5.119091E-01
     TEMPORAL STATISTIC: RUNNING AVERAGE
 104 ID: RHRRPUL
     QUANTITY: RHRRPUL
     Coordinates (X,Y,Z):   -5.000000E-05   -5.000000E-05    5.168788E-01
     TEMPORAL STATISTIC: RUNNING AVERAGE
 105 ID: RHRRPUL
     QUANTITY: RHRRPUL
     Coordinates (X,Y,Z):   -5.000000E-05   -5.000000E-05    5.218485E-01
     TEMPORAL STATISTIC: RUNNING AVERAGE
 106 ID: RHRRPUL
     QUANTITY: RHRRPUL
     Coordinates (X,Y,Z):   -5.000000E-05   -5.000000E-05    5.268182E-01
     TEMPORAL STATISTIC: RUNNING AVERAGE
 107 ID: RHRRPUL
     QUANTITY: RHRRPUL
     Coordinates (X,Y,Z):   -5.000000E-05   -5.000000E-05    5.317879E-01
     TEMPORAL STATISTIC: RUNNING AVERAGE
 108 ID: RHRRPUL
     QUANTITY: RHRRPUL
     Coordinates (X,Y,Z):   -5.000000E-05   -5.000000E-05    5.367576E-01
     TEMPORAL STATISTIC: RUNNING AVERAGE
 109 ID: RHRRPUL
     QUANTITY: RHRRPUL
     Coordinates (X,Y,Z):   -5.000000E-05   -5.000000E-05    5.417273E-01
     TEMPORAL STATISTIC: RUNNING AVERAGE
 110 ID: RHRRPUL
     QUANTITY: RHRRPUL
     Coordinates (X,Y,Z):   -5.000000E-05   -5.000000E-05    5.466970E-01
     TEMPORAL STATISTIC: RUNNING AVERAGE
 111 ID: RHRRPUL
     QUANTITY: RHRRPUL
     Coordinates (X,Y,Z):   -5.000000E-05   -5.000000E-05    5.516667E-01
     TEMPORAL STATISTIC: RUNNING AVERAGE
 112 ID: RHRRPUL
     QUANTITY: RHRRPUL
     Coordinates (X,Y,Z):   -5.000000E-05   -5.000000E-05    5.566364E-01
     TEMPORAL STATISTIC: RUNNING AVERAGE
 113 ID: RHRRPUL
     QUANTITY: RHRRPUL
     Coordinates (X,Y,Z):   -5.000000E-05   -5.000000E-05    5.616061E-01
     TEMPORAL STATISTIC: RUNNING AVERAGE
 114 ID: RHRRPUL
     QUANTITY: RHRRPUL
     Coordinates (X,Y,Z):   -5.000000E-05   -5.000000E-05    5.665758E-01
     TEMPORAL STATISTIC: RUNNING AVERAGE
 115 ID: RHRRPUL
     QUANTITY: RHRRPUL
     Coordinates (X,Y,Z):   -5.000000E-05   -5.000000E-05    5.715455E-01
     TEMPORAL STATISTIC: RUNNING AVERAGE
 116 ID: RHRRPUL
     QUANTITY: RHRRPUL
     Coordinates (X,Y,Z):   -5.000000E-05   -5.000000E-05    5.765152E-01
     TEMPORAL STATISTIC: RUNNING AVERAGE
 117 ID: RHRRPUL
     QUANTITY: RHRRPUL
     Coordinates (X,Y,Z):   -5.000000E-05   -5.000000E-05    5.814848E-01
     TEMPORAL STATISTIC: RUNNING AVERAGE
 118 ID: RHRRPUL
     QUANTITY: RHRRPUL
     Coordinates (X,Y,Z):   -5.000000E-05   -5.000000E-05    5.864545E-01
     TEMPORAL STATISTIC: RUNNING AVERAGE
 119 ID: RHRRPUL
     QUANTITY: RHRRPUL
     Coordinates (X,Y,Z):   -5.000000E-05   -5.000000E-05    5.914242E-01
     TEMPORAL STATISTIC: RUNNING AVERAGE
 120 ID: RHRRPUL
     QUANTITY: RHRRPUL
     Coordinates (X,Y,Z):   -5.000000E-05   -5.000000E-05    5.963939E-01
     TEMPORAL STATISTIC: RUNNING AVERAGE
 121 ID: RHRRPUL
     QUANTITY: RHRRPUL
     Coordinates (X,Y,Z):   -5.000000E-05   -5.000000E-05    6.013636E-01
     TEMPORAL STATISTIC: RUNNING AVERAGE
 122 ID: RHRRPUL
     QUANTITY: RHRRPUL
     Coordinates (X,Y,Z):   -5.000000E-05   -5.000000E-05    6.063333E-01
     TEMPORAL STATISTIC: RUNNING AVERAGE
 123 ID: RHRRPUL
     QUANTITY: RHRRPUL
     Coordinates (X,Y,Z):   -5.000000E-05   -5.000000E-05    6.113030E-01
     TEMPORAL STATISTIC: RUNNING AVERAGE
 124 ID: RHRRPUL
     QUANTITY: RHRRPUL
     Coordinates (X,Y,Z):   -5.000000E-05   -5.000000E-05    6.162727E-01
     TEMPORAL STATISTIC: RUNNING AVERAGE
 125 ID: RHRRPUL
     QUANTITY: RHRRPUL
     Coordinates (X,Y,Z):   -5.000000E-05   -5.000000E-05    6.212424E-01
     TEMPORAL STATISTIC: RUNNING AVERAGE
 126 ID: RHRRPUL
     QUANTITY: RHRRPUL
     Coordinates (X,Y,Z):   -5.000000E-05   -5.000000E-05    6.262121E-01
     TEMPORAL STATISTIC: RUNNING AVERAGE
 127 ID: RHRRPUL
     QUANTITY: RHRRPUL
     Coordinates (X,Y,Z):   -5.000000E-05   -5.000000E-05    6.311818E-01
     TEMPORAL STATISTIC: RUNNING AVERAGE
 128 ID: RHRRPUL
     QUANTITY: RHRRPUL
     Coordinates (X,Y,Z):   -5.000000E-05   -5.000000E-05    6.361515E-01
     TEMPORAL STATISTIC: RUNNING AVERAGE
 129 ID: RHRRPUL
     QUANTITY: RHRRPUL
     Coordinates (X,Y,Z):   -5.000000E-05   -5.000000E-05    6.411212E-01
     TEMPORAL STATISTIC: RUNNING AVERAGE
 130 ID: RHRRPUL
     QUANTITY: RHRRPUL
     Coordinates (X,Y,Z):   -5.000000E-05   -5.000000E-05    6.460909E-01
     TEMPORAL STATISTIC: RUNNING AVERAGE
 131 ID: RHRRPUL
     QUANTITY: RHRRPUL
     Coordinates (X,Y,Z):   -5.000000E-05   -5.000000E-05    6.510606E-01
     TEMPORAL STATISTIC: RUNNING AVERAGE
 132 ID: RHRRPUL
     QUANTITY: RHRRPUL
     Coordinates (X,Y,Z):   -5.000000E-05   -5.000000E-05    6.560303E-01
     TEMPORAL STATISTIC: RUNNING AVERAGE
 133 ID: RHRRPUL
     QUANTITY: RHRRPUL
     Coordinates (X,Y,Z):   -5.000000E-05   -5.000000E-05    6.610000E-01
     TEMPORAL STATISTIC: RUNNING AVERAGE
 134 ID: RHRRPUL
     QUANTITY: RHRRPUL
     Coordinates (X,Y,Z):   -5.000000E-05   -5.000000E-05    6.659697E-01
     TEMPORAL STATISTIC: RUNNING AVERAGE
 135 ID: RHRRPUL
     QUANTITY: RHRRPUL
     Coordinates (X,Y,Z):   -5.000000E-05   -5.000000E-05    6.709394E-01
     TEMPORAL STATISTIC: RUNNING AVERAGE
 136 ID: RHRRPUL
     QUANTITY: RHRRPUL
     Coordinates (X,Y,Z):   -5.000000E-05   -5.000000E-05    6.759091E-01
     TEMPORAL STATISTIC: RUNNING AVERAGE
 137 ID: RHRRPUL
     QUANTITY: RHRRPUL
     Coordinates (X,Y,Z):   -5.000000E-05   -5.000000E-05    6.808788E-01
     TEMPORAL STATISTIC: RUNNING AVERAGE
 138 ID: RHRRPUL
     QUANTITY: RHRRPUL
     Coordinates (X,Y,Z):   -5.000000E-05   -5.000000E-05    6.858485E-01
     TEMPORAL STATISTIC: RUNNING AVERAGE
 139 ID: RHRRPUL
     QUANTITY: RHRRPUL
     Coordinates (X,Y,Z):   -5.000000E-05   -5.000000E-05    6.908182E-01
     TEMPORAL STATISTIC: RUNNING AVERAGE
 140 ID: RHRRPUL
     QUANTITY: RHRRPUL
     Coordinates (X,Y,Z):   -5.000000E-05   -5.000000E-05    6.957879E-01
     TEMPORAL STATISTIC: RUNNING AVERAGE
 141 ID: RHRRPUL
     QUANTITY: RHRRPUL
     Coordinates (X,Y,Z):   -5.000000E-05   -5.000000E-05    7.007576E-01
     TEMPORAL STATISTIC: RUNNING AVERAGE
 142 ID: RHRRPUL
     QUANTITY: RHRRPUL
     Coordinates (X,Y,Z):   -5.000000E-05   -5.000000E-05    7.057273E-01
     TEMPORAL STATISTIC: RUNNING AVERAGE
 143 ID: RHRRPUL
     QUANTITY: RHRRPUL
     Coordinates (X,Y,Z):   -5.000000E-05   -5.000000E-05    7.106970E-01
     TEMPORAL STATISTIC: RUNNING AVERAGE
 144 ID: RHRRPUL
     QUANTITY: RHRRPUL
     Coordinates (X,Y,Z):   -5.000000E-05   -5.000000E-05    7.156667E-01
     TEMPORAL STATISTIC: RUNNING AVERAGE
 145 ID: RHRRPUL
     QUANTITY: RHRRPUL
     Coordinates (X,Y,Z):   -5.000000E-05   -5.000000E-05    7.206364E-01
     TEMPORAL STATISTIC: RUNNING AVERAGE
 146 ID: RHRRPUL
     QUANTITY: RHRRPUL
     Coordinates (X,Y,Z):   -5.000000E-05   -5.000000E-05    7.256061E-01
     TEMPORAL STATISTIC: RUNNING AVERAGE
 147 ID: RHRRPUL
     QUANTITY: RHRRPUL
     Coordinates (X,Y,Z):   -5.000000E-05   -5.000000E-05    7.305758E-01
     TEMPORAL STATISTIC: RUNNING AVERAGE
 148 ID: RHRRPUL
     QUANTITY: RHRRPUL
     Coordinates (X,Y,Z):   -5.000000E-05   -5.000000E-05    7.355455E-01
     TEMPORAL STATISTIC: RUNNING AVERAGE
 149 ID: RHRRPUL
     QUANTITY: RHRRPUL
     Coordinates (X,Y,Z):   -5.000000E-05   -5.000000E-05    7.405152E-01
     TEMPORAL STATISTIC: RUNNING AVERAGE
 150 ID: RHRRPUL
     QUANTITY: RHRRPUL
     Coordinates (X,Y,Z):   -5.000000E-05   -5.000000E-05    7.454848E-01
     TEMPORAL STATISTIC: RUNNING AVERAGE
 151 ID: RHRRPUL
     QUANTITY: RHRRPUL
     Coordinates (X,Y,Z):   -5.000000E-05   -5.000000E-05    7.504545E-01
     TEMPORAL STATISTIC: RUNNING AVERAGE
 152 ID: RHRRPUL
     QUANTITY: RHRRPUL
     Coordinates (X,Y,Z):   -5.000000E-05   -5.000000E-05    7.554242E-01
     TEMPORAL STATISTIC: RUNNING AVERAGE
 153 ID: RHRRPUL
     QUANTITY: RHRRPUL
     Coordinates (X,Y,Z):   -5.000000E-05   -5.000000E-05    7.603939E-01
     TEMPORAL STATISTIC: RUNNING AVERAGE
 154 ID: RHRRPUL
     QUANTITY: RHRRPUL
     Coordinates (X,Y,Z):   -5.000000E-05   -5.000000E-05    7.653636E-01
     TEMPORAL STATISTIC: RUNNING AVERAGE
 155 ID: RHRRPUL
     QUANTITY: RHRRPUL
     Coordinates (X,Y,Z):   -5.000000E-05   -5.000000E-05    7.703333E-01
     TEMPORAL STATISTIC: RUNNING AVERAGE
 156 ID: RHRRPUL
     QUANTITY: RHRRPUL
     Coordinates (X,Y,Z):   -5.000000E-05   -5.000000E-05    7.753030E-01
     TEMPORAL STATISTIC: RUNNING AVERAGE
 157 ID: RHRRPUL
     QUANTITY: RHRRPUL
     Coordinates (X,Y,Z):   -5.000000E-05   -5.000000E-05    7.802727E-01
     TEMPORAL STATISTIC: RUNNING AVERAGE
 158 ID: RHRRPUL
     QUANTITY: RHRRPUL
     Coordinates (X,Y,Z):   -5.000000E-05   -5.000000E-05    7.852424E-01
     TEMPORAL STATISTIC: RUNNING AVERAGE
 159 ID: RHRRPUL
     QUANTITY: RHRRPUL
     Coordinates (X,Y,Z):   -5.000000E-05   -5.000000E-05    7.902121E-01
     TEMPORAL STATISTIC: RUNNING AVERAGE
 160 ID: RHRRPUL
     QUANTITY: RHRRPUL
     Coordinates (X,Y,Z):   -5.000000E-05   -5.000000E-05    7.951818E-01
     TEMPORAL STATISTIC: RUNNING AVERAGE
 161 ID: RHRRPUL
     QUANTITY: RHRRPUL
     Coordinates (X,Y,Z):   -5.000000E-05   -5.000000E-05    8.001515E-01
     TEMPORAL STATISTIC: RUNNING AVERAGE
 162 ID: RHRRPUL
     QUANTITY: RHRRPUL
     Coordinates (X,Y,Z):   -5.000000E-05   -5.000000E-05    8.051212E-01
     TEMPORAL STATISTIC: RUNNING AVERAGE
 163 ID: RHRRPUL
     QUANTITY: RHRRPUL
     Coordinates (X,Y,Z):   -5.000000E-05   -5.000000E-05    8.100909E-01
     TEMPORAL STATISTIC: RUNNING AVERAGE
 164 ID: RHRRPUL
     QUANTITY: RHRRPUL
     Coordinates (X,Y,Z):   -5.000000E-05   -5.000000E-05    8.150606E-01
     TEMPORAL STATISTIC: RUNNING AVERAGE
 165 ID: RHRRPUL
     QUANTITY: RHRRPUL
     Coordinates (X,Y,Z):   -5.000000E-05   -5.000000E-05    8.200303E-01
     TEMPORAL STATISTIC: RUNNING AVERAGE
 166 ID: RHRRPUL
     QUANTITY: RHRRPUL
     Coordinates (X,Y,Z):   -5.000000E-05   -5.000000E-05    8.250000E-01
     TEMPORAL STATISTIC: RUNNING AVERAGE
 167 ID: RHRRPUL_rms
     QUANTITY: RHRRPUL
     Coordinates (X,Y,Z):   -5.000000E-05   -5.000000E-05    5.000000E-03
     TEMPORAL STATISTIC: RMS
 168 ID: RHRRPUL_rms
     QUANTITY: RHRRPUL
     Coordinates (X,Y,Z):   -5.000000E-05   -5.000000E-05    9.969697E-03
     TEMPORAL STATISTIC: RMS
 169 ID: RHRRPUL_rms
     QUANTITY: RHRRPUL
     Coordinates (X,Y,Z):   -5.000000E-05   -5.000000E-05    1.493939E-02
     TEMPORAL STATISTIC: RMS
 170 ID: RHRRPUL_rms
     QUANTITY: RHRRPUL
     Coordinates (X,Y,Z):   -5.000000E-05   -5.000000E-05    1.990909E-02
     TEMPORAL STATISTIC: RMS
 171 ID: RHRRPUL_rms
     QUANTITY: RHRRPUL
     Coordinates (X,Y,Z):   -5.000000E-05   -5.000000E-05    2.487879E-02
     TEMPORAL STATISTIC: RMS
 172 ID: RHRRPUL_rms
     QUANTITY: RHRRPUL
     Coordinates (X,Y,Z):   -5.000000E-05   -5.000000E-05    2.984848E-02
     TEMPORAL STATISTIC: RMS
 173 ID: RHRRPUL_rms
     QUANTITY: RHRRPUL
     Coordinates (X,Y,Z):   -5.000000E-05   -5.000000E-05    3.481818E-02
     TEMPORAL STATISTIC: RMS
 174 ID: RHRRPUL_rms
     QUANTITY: RHRRPUL
     Coordinates (X,Y,Z):   -5.000000E-05   -5.000000E-05    3.978788E-02
     TEMPORAL STATISTIC: RMS
 175 ID: RHRRPUL_rms
     QUANTITY: RHRRPUL
     Coordinates (X,Y,Z):   -5.000000E-05   -5.000000E-05    4.475758E-02
     TEMPORAL STATISTIC: RMS
 176 ID: RHRRPUL_rms
     QUANTITY: RHRRPUL
     Coordinates (X,Y,Z):   -5.000000E-05   -5.000000E-05    4.972727E-02
     TEMPORAL STATISTIC: RMS
 177 ID: RHRRPUL_rms
     QUANTITY: RHRRPUL
     Coordinates (X,Y,Z):   -5.000000E-05   -5.000000E-05    5.469697E-02
     TEMPORAL STATISTIC: RMS
 178 ID: RHRRPUL_rms
     QUANTITY: RHRRPUL
     Coordinates (X,Y,Z):   -5.000000E-05   -5.000000E-05    5.966667E-02
     TEMPORAL STATISTIC: RMS
 179 ID: RHRRPUL_rms
     QUANTITY: RHRRPUL
     Coordinates (X,Y,Z):   -5.000000E-05   -5.000000E-05    6.463636E-02
     TEMPORAL STATISTIC: RMS
 180 ID: RHRRPUL_rms
     QUANTITY: RHRRPUL
     Coordinates (X,Y,Z):   -5.000000E-05   -5.000000E-05    6.960606E-02
     TEMPORAL STATISTIC: RMS
 181 ID: RHRRPUL_rms
     QUANTITY: RHRRPUL
     Coordinates (X,Y,Z):   -5.000000E-05   -5.000000E-05    7.457576E-02
     TEMPORAL STATISTIC: RMS
 182 ID: RHRRPUL_rms
     QUANTITY: RHRRPUL
     Coordinates (X,Y,Z):   -5.000000E-05   -5.000000E-05    7.954545E-02
     TEMPORAL STATISTIC: RMS
 183 ID: RHRRPUL_rms
     QUANTITY: RHRRPUL
     Coordinates (X,Y,Z):   -5.000000E-05   -5.000000E-05    8.451515E-02
     TEMPORAL STATISTIC: RMS
 184 ID: RHRRPUL_rms
     QUANTITY: RHRRPUL
     Coordinates (X,Y,Z):   -5.000000E-05   -5.000000E-05    8.948485E-02
     TEMPORAL STATISTIC: RMS
 185 ID: RHRRPUL_rms
     QUANTITY: RHRRPUL
     Coordinates (X,Y,Z):   -5.000000E-05   -5.000000E-05    9.445455E-02
     TEMPORAL STATISTIC: RMS
 186 ID: RHRRPUL_rms
     QUANTITY: RHRRPUL
     Coordinates (X,Y,Z):   -5.000000E-05   -5.000000E-05    9.942424E-02
     TEMPORAL STATISTIC: RMS
 187 ID: RHRRPUL_rms
     QUANTITY: RHRRPUL
     Coordinates (X,Y,Z):   -5.000000E-05   -5.000000E-05    1.043939E-01
     TEMPORAL STATISTIC: RMS
 188 ID: RHRRPUL_rms
     QUANTITY: RHRRPUL
     Coordinates (X,Y,Z):   -5.000000E-05   -5.000000E-05    1.093636E-01
     TEMPORAL STATISTIC: RMS
 189 ID: RHRRPUL_rms
     QUANTITY: RHRRPUL
     Coordinates (X,Y,Z):   -5.000000E-05   -5.000000E-05    1.143333E-01
     TEMPORAL STATISTIC: RMS
 190 ID: RHRRPUL_rms
     QUANTITY: RHRRPUL
     Coordinates (X,Y,Z):   -5.000000E-05   -5.000000E-05    1.193030E-01
     TEMPORAL STATISTIC: RMS
 191 ID: RHRRPUL_rms
     QUANTITY: RHRRPUL
     Coordinates (X,Y,Z):   -5.000000E-05   -5.000000E-05    1.242727E-01
     TEMPORAL STATISTIC: RMS
 192 ID: RHRRPUL_rms
     QUANTITY: RHRRPUL
     Coordinates (X,Y,Z):   -5.000000E-05   -5.000000E-05    1.292424E-01
     TEMPORAL STATISTIC: RMS
 193 ID: RHRRPUL_rms
     QUANTITY: RHRRPUL
     Coordinates (X,Y,Z):   -5.000000E-05   -5.000000E-05    1.342121E-01
     TEMPORAL STATISTIC: RMS
 194 ID: RHRRPUL_rms
     QUANTITY: RHRRPUL
     Coordinates (X,Y,Z):   -5.000000E-05   -5.000000E-05    1.391818E-01
     TEMPORAL STATISTIC: RMS
 195 ID: RHRRPUL_rms
     QUANTITY: RHRRPUL
     Coordinates (X,Y,Z):   -5.000000E-05   -5.000000E-05    1.441515E-01
     TEMPORAL STATISTIC: RMS
 196 ID: RHRRPUL_rms
     QUANTITY: RHRRPUL
     Coordinates (X,Y,Z):   -5.000000E-05   -5.000000E-05    1.491212E-01
     TEMPORAL STATISTIC: RMS
 197 ID: RHRRPUL_rms
     QUANTITY: RHRRPUL
     Coordinates (X,Y,Z):   -5.000000E-05   -5.000000E-05    1.540909E-01
     TEMPORAL STATISTIC: RMS
 198 ID: RHRRPUL_rms
     QUANTITY: RHRRPUL
     Coordinates (X,Y,Z):   -5.000000E-05   -5.000000E-05    1.590606E-01
     TEMPORAL STATISTIC: RMS
 199 ID: RHRRPUL_rms
     QUANTITY: RHRRPUL
     Coordinates (X,Y,Z):   -5.000000E-05   -5.000000E-05    1.640303E-01
     TEMPORAL STATISTIC: RMS
 200 ID: RHRRPUL_rms
     QUANTITY: RHRRPUL
     Coordinates (X,Y,Z):   -5.000000E-05   -5.000000E-05    1.690000E-01
     TEMPORAL STATISTIC: RMS
 201 ID: RHRRPUL_rms
     QUANTITY: RHRRPUL
     Coordinates (X,Y,Z):   -5.000000E-05   -5.000000E-05    1.739697E-01
     TEMPORAL STATISTIC: RMS
 202 ID: RHRRPUL_rms
     QUANTITY: RHRRPUL
     Coordinates (X,Y,Z):   -5.000000E-05   -5.000000E-05    1.789394E-01
     TEMPORAL STATISTIC: RMS
 203 ID: RHRRPUL_rms
     QUANTITY: RHRRPUL
     Coordinates (X,Y,Z):   -5.000000E-05   -5.000000E-05    1.839091E-01
     TEMPORAL STATISTIC: RMS
 204 ID: RHRRPUL_rms
     QUANTITY: RHRRPUL
     Coordinates (X,Y,Z):   -5.000000E-05   -5.000000E-05    1.888788E-01
     TEMPORAL STATISTIC: RMS
 205 ID: RHRRPUL_rms
     QUANTITY: RHRRPUL
     Coordinates (X,Y,Z):   -5.000000E-05   -5.000000E-05    1.938485E-01
     TEMPORAL STATISTIC: RMS
 206 ID: RHRRPUL_rms
     QUANTITY: RHRRPUL
     Coordinates (X,Y,Z):   -5.000000E-05   -5.000000E-05    1.988182E-01
     TEMPORAL STATISTIC: RMS
 207 ID: RHRRPUL_rms
     QUANTITY: RHRRPUL
     Coordinates (X,Y,Z):   -5.000000E-05   -5.000000E-05    2.037879E-01
     TEMPORAL STATISTIC: RMS
 208 ID: RHRRPUL_rms
     QUANTITY: RHRRPUL
     Coordinates (X,Y,Z):   -5.000000E-05   -5.000000E-05    2.087576E-01
     TEMPORAL STATISTIC: RMS
 209 ID: RHRRPUL_rms
     QUANTITY: RHRRPUL
     Coordinates (X,Y,Z):   -5.000000E-05   -5.000000E-05    2.137273E-01
     TEMPORAL STATISTIC: RMS
 210 ID: RHRRPUL_rms
     QUANTITY: RHRRPUL
     Coordinates (X,Y,Z):   -5.000000E-05   -5.000000E-05    2.186970E-01
     TEMPORAL STATISTIC: RMS
 211 ID: RHRRPUL_rms
     QUANTITY: RHRRPUL
     Coordinates (X,Y,Z):   -5.000000E-05   -5.000000E-05    2.236667E-01
     TEMPORAL STATISTIC: RMS
 212 ID: RHRRPUL_rms
     QUANTITY: RHRRPUL
     Coordinates (X,Y,Z):   -5.000000E-05   -5.000000E-05    2.286364E-01
     TEMPORAL STATISTIC: RMS
 213 ID: RHRRPUL_rms
     QUANTITY: RHRRPUL
     Coordinates (X,Y,Z):   -5.000000E-05   -5.000000E-05    2.336061E-01
     TEMPORAL STATISTIC: RMS
 214 ID: RHRRPUL_rms
     QUANTITY: RHRRPUL
     Coordinates (X,Y,Z):   -5.000000E-05   -5.000000E-05    2.385758E-01
     TEMPORAL STATISTIC: RMS
 215 ID: RHRRPUL_rms
     QUANTITY: RHRRPUL
     Coordinates (X,Y,Z):   -5.000000E-05   -5.000000E-05    2.435455E-01
     TEMPORAL STATISTIC: RMS
 216 ID: RHRRPUL_rms
     QUANTITY: RHRRPUL
     Coordinates (X,Y,Z):   -5.000000E-05   -5.000000E-05    2.485152E-01
     TEMPORAL STATISTIC: RMS
 217 ID: RHRRPUL_rms
     QUANTITY: RHRRPUL
     Coordinates (X,Y,Z):   -5.000000E-05   -5.000000E-05    2.534848E-01
     TEMPORAL STATISTIC: RMS
 218 ID: RHRRPUL_rms
     QUANTITY: RHRRPUL
     Coordinates (X,Y,Z):   -5.000000E-05   -5.000000E-05    2.584545E-01
     TEMPORAL STATISTIC: RMS
 219 ID: RHRRPUL_rms
     QUANTITY: RHRRPUL
     Coordinates (X,Y,Z):   -5.000000E-05   -5.000000E-05    2.634242E-01
     TEMPORAL STATISTIC: RMS
 220 ID: RHRRPUL_rms
     QUANTITY: RHRRPUL
     Coordinates (X,Y,Z):   -5.000000E-05   -5.000000E-05    2.683939E-01
     TEMPORAL STATISTIC: RMS
 221 ID: RHRRPUL_rms
     QUANTITY: RHRRPUL
     Coordinates (X,Y,Z):   -5.000000E-05   -5.000000E-05    2.733636E-01
     TEMPORAL STATISTIC: RMS
 222 ID: RHRRPUL_rms
     QUANTITY: RHRRPUL
     Coordinates (X,Y,Z):   -5.000000E-05   -5.000000E-05    2.783333E-01
     TEMPORAL STATISTIC: RMS
 223 ID: RHRRPUL_rms
     QUANTITY: RHRRPUL
     Coordinates (X,Y,Z):   -5.000000E-05   -5.000000E-05    2.833030E-01
     TEMPORAL STATISTIC: RMS
 224 ID: RHRRPUL_rms
     QUANTITY: RHRRPUL
     Coordinates (X,Y,Z):   -5.000000E-05   -5.000000E-05    2.882727E-01
     TEMPORAL STATISTIC: RMS
 225 ID: RHRRPUL_rms
     QUANTITY: RHRRPUL
     Coordinates (X,Y,Z):   -5.000000E-05   -5.000000E-05    2.932424E-01
     TEMPORAL STATISTIC: RMS
 226 ID: RHRRPUL_rms
     QUANTITY: RHRRPUL
     Coordinates (X,Y,Z):   -5.000000E-05   -5.000000E-05    2.982121E-01
     TEMPORAL STATISTIC: RMS
 227 ID: RHRRPUL_rms
     QUANTITY: RHRRPUL
     Coordinates (X,Y,Z):   -5.000000E-05   -5.000000E-05    3.031818E-01
     TEMPORAL STATISTIC: RMS
 228 ID: RHRRPUL_rms
     QUANTITY: RHRRPUL
     Coordinates (X,Y,Z):   -5.000000E-05   -5.000000E-05    3.081515E-01
     TEMPORAL STATISTIC: RMS
 229 ID: RHRRPUL_rms
     QUANTITY: RHRRPUL
     Coordinates (X,Y,Z):   -5.000000E-05   -5.000000E-05    3.131212E-01
     TEMPORAL STATISTIC: RMS
 230 ID: RHRRPUL_rms
     QUANTITY: RHRRPUL
     Coordinates (X,Y,Z):   -5.000000E-05   -5.000000E-05    3.180909E-01
     TEMPORAL STATISTIC: RMS
 231 ID: RHRRPUL_rms
     QUANTITY: RHRRPUL
     Coordinates (X,Y,Z):   -5.000000E-05   -5.000000E-05    3.230606E-01
     TEMPORAL STATISTIC: RMS
 232 ID: RHRRPUL_rms
     QUANTITY: RHRRPUL
     Coordinates (X,Y,Z):   -5.000000E-05   -5.000000E-05    3.280303E-01
     TEMPORAL STATISTIC: RMS
 233 ID: RHRRPUL_rms
     QUANTITY: RHRRPUL
     Coordinates (X,Y,Z):   -5.000000E-05   -5.000000E-05    3.330000E-01
     TEMPORAL STATISTIC: RMS
 234 ID: RHRRPUL_rms
     QUANTITY: RHRRPUL
     Coordinates (X,Y,Z):   -5.000000E-05   -5.000000E-05    3.379697E-01
     TEMPORAL STATISTIC: RMS
 235 ID: RHRRPUL_rms
     QUANTITY: RHRRPUL
     Coordinates (X,Y,Z):   -5.000000E-05   -5.000000E-05    3.429394E-01
     TEMPORAL STATISTIC: RMS
 236 ID: RHRRPUL_rms
     QUANTITY: RHRRPUL
     Coordinates (X,Y,Z):   -5.000000E-05   -5.000000E-05    3.479091E-01
     TEMPORAL STATISTIC: RMS
 237 ID: RHRRPUL_rms
     QUANTITY: RHRRPUL
     Coordinates (X,Y,Z):   -5.000000E-05   -5.000000E-05    3.528788E-01
     TEMPORAL STATISTIC: RMS
 238 ID: RHRRPUL_rms
     QUANTITY: RHRRPUL
     Coordinates (X,Y,Z):   -5.000000E-05   -5.000000E-05    3.578485E-01
     TEMPORAL STATISTIC: RMS
 239 ID: RHRRPUL_rms
     QUANTITY: RHRRPUL
     Coordinates (X,Y,Z):   -5.000000E-05   -5.000000E-05    3.628182E-01
     TEMPORAL STATISTIC: RMS
 240 ID: RHRRPUL_rms
     QUANTITY: RHRRPUL
     Coordinates (X,Y,Z):   -5.000000E-05   -5.000000E-05    3.677879E-01
     TEMPORAL STATISTIC: RMS
 241 ID: RHRRPUL_rms
     QUANTITY: RHRRPUL
     Coordinates (X,Y,Z):   -5.000000E-05   -5.000000E-05    3.727576E-01
     TEMPORAL STATISTIC: RMS
 242 ID: RHRRPUL_rms
     QUANTITY: RHRRPUL
     Coordinates (X,Y,Z):   -5.000000E-05   -5.000000E-05    3.777273E-01
     TEMPORAL STATISTIC: RMS
 243 ID: RHRRPUL_rms
     QUANTITY: RHRRPUL
     Coordinates (X,Y,Z):   -5.000000E-05   -5.000000E-05    3.826970E-01
     TEMPORAL STATISTIC: RMS
 244 ID: RHRRPUL_rms
     QUANTITY: RHRRPUL
     Coordinates (X,Y,Z):   -5.000000E-05   -5.000000E-05    3.876667E-01
     TEMPORAL STATISTIC: RMS
 245 ID: RHRRPUL_rms
     QUANTITY: RHRRPUL
     Coordinates (X,Y,Z):   -5.000000E-05   -5.000000E-05    3.926364E-01
     TEMPORAL STATISTIC: RMS
 246 ID: RHRRPUL_rms
     QUANTITY: RHRRPUL
     Coordinates (X,Y,Z):   -5.000000E-05   -5.000000E-05    3.976061E-01
     TEMPORAL STATISTIC: RMS
 247 ID: RHRRPUL_rms
     QUANTITY: RHRRPUL
     Coordinates (X,Y,Z):   -5.000000E-05   -5.000000E-05    4.025758E-01
     TEMPORAL STATISTIC: RMS
 248 ID: RHRRPUL_rms
     QUANTITY: RHRRPUL
     Coordinates (X,Y,Z):   -5.000000E-05   -5.000000E-05    4.075455E-01
     TEMPORAL STATISTIC: RMS
 249 ID: RHRRPUL_rms
     QUANTITY: RHRRPUL
     Coordinates (X,Y,Z):   -5.000000E-05   -5.000000E-05    4.125152E-01
     TEMPORAL STATISTIC: RMS
 250 ID: RHRRPUL_rms
     QUANTITY: RHRRPUL
     Coordinates (X,Y,Z):   -5.000000E-05   -5.000000E-05    4.174848E-01
     TEMPORAL STATISTIC: RMS
 251 ID: RHRRPUL_rms
     QUANTITY: RHRRPUL
     Coordinates (X,Y,Z):   -5.000000E-05   -5.000000E-05    4.224545E-01
     TEMPORAL STATISTIC: RMS
 252 ID: RHRRPUL_rms
     QUANTITY: RHRRPUL
     Coordinates (X,Y,Z):   -5.000000E-05   -5.000000E-05    4.274242E-01
     TEMPORAL STATISTIC: RMS
 253 ID: RHRRPUL_rms
     QUANTITY: RHRRPUL
     Coordinates (X,Y,Z):   -5.000000E-05   -5.000000E-05    4.323939E-01
     TEMPORAL STATISTIC: RMS
 254 ID: RHRRPUL_rms
     QUANTITY: RHRRPUL
     Coordinates (X,Y,Z):   -5.000000E-05   -5.000000E-05    4.373636E-01
     TEMPORAL STATISTIC: RMS
 255 ID: RHRRPUL_rms
     QUANTITY: RHRRPUL
     Coordinates (X,Y,Z):   -5.000000E-05   -5.000000E-05    4.423333E-01
     TEMPORAL STATISTIC: RMS
 256 ID: RHRRPUL_rms
     QUANTITY: RHRRPUL
     Coordinates (X,Y,Z):   -5.000000E-05   -5.000000E-05    4.473030E-01
     TEMPORAL STATISTIC: RMS
 257 ID: RHRRPUL_rms
     QUANTITY: RHRRPUL
     Coordinates (X,Y,Z):   -5.000000E-05   -5.000000E-05    4.522727E-01
     TEMPORAL STATISTIC: RMS
 258 ID: RHRRPUL_rms
     QUANTITY: RHRRPUL
     Coordinates (X,Y,Z):   -5.000000E-05   -5.000000E-05    4.572424E-01
     TEMPORAL STATISTIC: RMS
 259 ID: RHRRPUL_rms
     QUANTITY: RHRRPUL
     Coordinates (X,Y,Z):   -5.000000E-05   -5.000000E-05    4.622121E-01
     TEMPORAL STATISTIC: RMS
 260 ID: RHRRPUL_rms
     QUANTITY: RHRRPUL
     Coordinates (X,Y,Z):   -5.000000E-05   -5.000000E-05    4.671818E-01
     TEMPORAL STATISTIC: RMS
 261 ID: RHRRPUL_rms
     QUANTITY: RHRRPUL
     Coordinates (X,Y,Z):   -5.000000E-05   -5.000000E-05    4.721515E-01
     TEMPORAL STATISTIC: RMS
 262 ID: RHRRPUL_rms
     QUANTITY: RHRRPUL
     Coordinates (X,Y,Z):   -5.000000E-05   -5.000000E-05    4.771212E-01
     TEMPORAL STATISTIC: RMS
 263 ID: RHRRPUL_rms
     QUANTITY: RHRRPUL
     Coordinates (X,Y,Z):   -5.000000E-05   -5.000000E-05    4.820909E-01
     TEMPORAL STATISTIC: RMS
 264 ID: RHRRPUL_rms
     QUANTITY: RHRRPUL
     Coordinates (X,Y,Z):   -5.000000E-05   -5.000000E-05    4.870606E-01
     TEMPORAL STATISTIC: RMS
 265 ID: RHRRPUL_rms
     QUANTITY: RHRRPUL
     Coordinates (X,Y,Z):   -5.000000E-05   -5.000000E-05    4.920303E-01
     TEMPORAL STATISTIC: RMS
 266 ID: RHRRPUL_rms
     QUANTITY: RHRRPUL
     Coordinates (X,Y,Z):   -5.000000E-05   -5.000000E-05    4.970000E-01
     TEMPORAL STATISTIC: RMS
 267 ID: RHRRPUL_rms
     QUANTITY: RHRRPUL
     Coordinates (X,Y,Z):   -5.000000E-05   -5.000000E-05    5.019697E-01
     TEMPORAL STATISTIC: RMS
 268 ID: RHRRPUL_rms
     QUANTITY: RHRRPUL
     Coordinates (X,Y,Z):   -5.000000E-05   -5.000000E-05    5.069394E-01
     TEMPORAL STATISTIC: RMS
 269 ID: RHRRPUL_rms
     QUANTITY: RHRRPUL
     Coordinates (X,Y,Z):   -5.000000E-05   -5.000000E-05    5.119091E-01
     TEMPORAL STATISTIC: RMS
 270 ID: RHRRPUL_rms
     QUANTITY: RHRRPUL
     Coordinates (X,Y,Z):   -5.000000E-05   -5.000000E-05    5.168788E-01
     TEMPORAL STATISTIC: RMS
 271 ID: RHRRPUL_rms
     QUANTITY: RHRRPUL
     Coordinates (X,Y,Z):   -5.000000E-05   -5.000000E-05    5.218485E-01
     TEMPORAL STATISTIC: RMS
 272 ID: RHRRPUL_rms
     QUANTITY: RHRRPUL
     Coordinates (X,Y,Z):   -5.000000E-05   -5.000000E-05    5.268182E-01
     TEMPORAL STATISTIC: RMS
 273 ID: RHRRPUL_rms
     QUANTITY: RHRRPUL
     Coordinates (X,Y,Z):   -5.000000E-05   -5.000000E-05    5.317879E-01
     TEMPORAL STATISTIC: RMS
 274 ID: RHRRPUL_rms
     QUANTITY: RHRRPUL
     Coordinates (X,Y,Z):   -5.000000E-05   -5.000000E-05    5.367576E-01
     TEMPORAL STATISTIC: RMS
 275 ID: RHRRPUL_rms
     QUANTITY: RHRRPUL
     Coordinates (X,Y,Z):   -5.000000E-05   -5.000000E-05    5.417273E-01
     TEMPORAL STATISTIC: RMS
 276 ID: RHRRPUL_rms
     QUANTITY: RHRRPUL
     Coordinates (X,Y,Z):   -5.000000E-05   -5.000000E-05    5.466970E-01
     TEMPORAL STATISTIC: RMS
 277 ID: RHRRPUL_rms
     QUANTITY: RHRRPUL
     Coordinates (X,Y,Z):   -5.000000E-05   -5.000000E-05    5.516667E-01
     TEMPORAL STATISTIC: RMS
 278 ID: RHRRPUL_rms
     QUANTITY: RHRRPUL
     Coordinates (X,Y,Z):   -5.000000E-05   -5.000000E-05    5.566364E-01
     TEMPORAL STATISTIC: RMS
 279 ID: RHRRPUL_rms
     QUANTITY: RHRRPUL
     Coordinates (X,Y,Z):   -5.000000E-05   -5.000000E-05    5.616061E-01
     TEMPORAL STATISTIC: RMS
 280 ID: RHRRPUL_rms
     QUANTITY: RHRRPUL
     Coordinates (X,Y,Z):   -5.000000E-05   -5.000000E-05    5.665758E-01
     TEMPORAL STATISTIC: RMS
 281 ID: RHRRPUL_rms
     QUANTITY: RHRRPUL
     Coordinates (X,Y,Z):   -5.000000E-05   -5.000000E-05    5.715455E-01
     TEMPORAL STATISTIC: RMS
 282 ID: RHRRPUL_rms
     QUANTITY: RHRRPUL
     Coordinates (X,Y,Z):   -5.000000E-05   -5.000000E-05    5.765152E-01
     TEMPORAL STATISTIC: RMS
 283 ID: RHRRPUL_rms
     QUANTITY: RHRRPUL
     Coordinates (X,Y,Z):   -5.000000E-05   -5.000000E-05    5.814848E-01
     TEMPORAL STATISTIC: RMS
 284 ID: RHRRPUL_rms
     QUANTITY: RHRRPUL
     Coordinates (X,Y,Z):   -5.000000E-05   -5.000000E-05    5.864545E-01
     TEMPORAL STATISTIC: RMS
 285 ID: RHRRPUL_rms
     QUANTITY: RHRRPUL
     Coordinates (X,Y,Z):   -5.000000E-05   -5.000000E-05    5.914242E-01
     TEMPORAL STATISTIC: RMS
 286 ID: RHRRPUL_rms
     QUANTITY: RHRRPUL
     Coordinates (X,Y,Z):   -5.000000E-05   -5.000000E-05    5.963939E-01
     TEMPORAL STATISTIC: RMS
 287 ID: RHRRPUL_rms
     QUANTITY: RHRRPUL
     Coordinates (X,Y,Z):   -5.000000E-05   -5.000000E-05    6.013636E-01
     TEMPORAL STATISTIC: RMS
 288 ID: RHRRPUL_rms
     QUANTITY: RHRRPUL
     Coordinates (X,Y,Z):   -5.000000E-05   -5.000000E-05    6.063333E-01
     TEMPORAL STATISTIC: RMS
 289 ID: RHRRPUL_rms
     QUANTITY: RHRRPUL
     Coordinates (X,Y,Z):   -5.000000E-05   -5.000000E-05    6.113030E-01
     TEMPORAL STATISTIC: RMS
 290 ID: RHRRPUL_rms
     QUANTITY: RHRRPUL
     Coordinates (X,Y,Z):   -5.000000E-05   -5.000000E-05    6.162727E-01
     TEMPORAL STATISTIC: RMS
 291 ID: RHRRPUL_rms
     QUANTITY: RHRRPUL
     Coordinates (X,Y,Z):   -5.000000E-05   -5.000000E-05    6.212424E-01
     TEMPORAL STATISTIC: RMS
 292 ID: RHRRPUL_rms
     QUANTITY: RHRRPUL
     Coordinates (X,Y,Z):   -5.000000E-05   -5.000000E-05    6.262121E-01
     TEMPORAL STATISTIC: RMS
 293 ID: RHRRPUL_rms
     QUANTITY: RHRRPUL
     Coordinates (X,Y,Z):   -5.000000E-05   -5.000000E-05    6.311818E-01
     TEMPORAL STATISTIC: RMS
 294 ID: RHRRPUL_rms
     QUANTITY: RHRRPUL
     Coordinates (X,Y,Z):   -5.000000E-05   -5.000000E-05    6.361515E-01
     TEMPORAL STATISTIC: RMS
 295 ID: RHRRPUL_rms
     QUANTITY: RHRRPUL
     Coordinates (X,Y,Z):   -5.000000E-05   -5.000000E-05    6.411212E-01
     TEMPORAL STATISTIC: RMS
 296 ID: RHRRPUL_rms
     QUANTITY: RHRRPUL
     Coordinates (X,Y,Z):   -5.000000E-05   -5.000000E-05    6.460909E-01
     TEMPORAL STATISTIC: RMS
 297 ID: RHRRPUL_rms
     QUANTITY: RHRRPUL
     Coordinates (X,Y,Z):   -5.000000E-05   -5.000000E-05    6.510606E-01
     TEMPORAL STATISTIC: RMS
 298 ID: RHRRPUL_rms
     QUANTITY: RHRRPUL
     Coordinates (X,Y,Z):   -5.000000E-05   -5.000000E-05    6.560303E-01
     TEMPORAL STATISTIC: RMS
 299 ID: RHRRPUL_rms
     QUANTITY: RHRRPUL
     Coordinates (X,Y,Z):   -5.000000E-05   -5.000000E-05    6.610000E-01
     TEMPORAL STATISTIC: RMS
 300 ID: RHRRPUL_rms
     QUANTITY: RHRRPUL
     Coordinates (X,Y,Z):   -5.000000E-05   -5.000000E-05    6.659697E-01
     TEMPORAL STATISTIC: RMS
 301 ID: RHRRPUL_rms
     QUANTITY: RHRRPUL
     Coordinates (X,Y,Z):   -5.000000E-05   -5.000000E-05    6.709394E-01
     TEMPORAL STATISTIC: RMS
 302 ID: RHRRPUL_rms
     QUANTITY: RHRRPUL
     Coordinates (X,Y,Z):   -5.000000E-05   -5.000000E-05    6.759091E-01
     TEMPORAL STATISTIC: RMS
 303 ID: RHRRPUL_rms
     QUANTITY: RHRRPUL
     Coordinates (X,Y,Z):   -5.000000E-05   -5.000000E-05    6.808788E-01
     TEMPORAL STATISTIC: RMS
 304 ID: RHRRPUL_rms
     QUANTITY: RHRRPUL
     Coordinates (X,Y,Z):   -5.000000E-05   -5.000000E-05    6.858485E-01
     TEMPORAL STATISTIC: RMS
 305 ID: RHRRPUL_rms
     QUANTITY: RHRRPUL
     Coordinates (X,Y,Z):   -5.000000E-05   -5.000000E-05    6.908182E-01
     TEMPORAL STATISTIC: RMS
 306 ID: RHRRPUL_rms
     QUANTITY: RHRRPUL
     Coordinates (X,Y,Z):   -5.000000E-05   -5.000000E-05    6.957879E-01
     TEMPORAL STATISTIC: RMS
 307 ID: RHRRPUL_rms
     QUANTITY: RHRRPUL
     Coordinates (X,Y,Z):   -5.000000E-05   -5.000000E-05    7.007576E-01
     TEMPORAL STATISTIC: RMS
 308 ID: RHRRPUL_rms
     QUANTITY: RHRRPUL
     Coordinates (X,Y,Z):   -5.000000E-05   -5.000000E-05    7.057273E-01
     TEMPORAL STATISTIC: RMS
 309 ID: RHRRPUL_rms
     QUANTITY: RHRRPUL
     Coordinates (X,Y,Z):   -5.000000E-05   -5.000000E-05    7.106970E-01
     TEMPORAL STATISTIC: RMS
 310 ID: RHRRPUL_rms
     QUANTITY: RHRRPUL
     Coordinates (X,Y,Z):   -5.000000E-05   -5.000000E-05    7.156667E-01
     TEMPORAL STATISTIC: RMS
 311 ID: RHRRPUL_rms
     QUANTITY: RHRRPUL
     Coordinates (X,Y,Z):   -5.000000E-05   -5.000000E-05    7.206364E-01
     TEMPORAL STATISTIC: RMS
 312 ID: RHRRPUL_rms
     QUANTITY: RHRRPUL
     Coordinates (X,Y,Z):   -5.000000E-05   -5.000000E-05    7.256061E-01
     TEMPORAL STATISTIC: RMS
 313 ID: RHRRPUL_rms
     QUANTITY: RHRRPUL
     Coordinates (X,Y,Z):   -5.000000E-05   -5.000000E-05    7.305758E-01
     TEMPORAL STATISTIC: RMS
 314 ID: RHRRPUL_rms
     QUANTITY: RHRRPUL
     Coordinates (X,Y,Z):   -5.000000E-05   -5.000000E-05    7.355455E-01
     TEMPORAL STATISTIC: RMS
 315 ID: RHRRPUL_rms
     QUANTITY: RHRRPUL
     Coordinates (X,Y,Z):   -5.000000E-05   -5.000000E-05    7.405152E-01
     TEMPORAL STATISTIC: RMS
 316 ID: RHRRPUL_rms
     QUANTITY: RHRRPUL
     Coordinates (X,Y,Z):   -5.000000E-05   -5.000000E-05    7.454848E-01
     TEMPORAL STATISTIC: RMS
 317 ID: RHRRPUL_rms
     QUANTITY: RHRRPUL
     Coordinates (X,Y,Z):   -5.000000E-05   -5.000000E-05    7.504545E-01
     TEMPORAL STATISTIC: RMS
 318 ID: RHRRPUL_rms
     QUANTITY: RHRRPUL
     Coordinates (X,Y,Z):   -5.000000E-05   -5.000000E-05    7.554242E-01
     TEMPORAL STATISTIC: RMS
 319 ID: RHRRPUL_rms
     QUANTITY: RHRRPUL
     Coordinates (X,Y,Z):   -5.000000E-05   -5.000000E-05    7.603939E-01
     TEMPORAL STATISTIC: RMS
 320 ID: RHRRPUL_rms
     QUANTITY: RHRRPUL
     Coordinates (X,Y,Z):   -5.000000E-05   -5.000000E-05    7.653636E-01
     TEMPORAL STATISTIC: RMS
 321 ID: RHRRPUL_rms
     QUANTITY: RHRRPUL
     Coordinates (X,Y,Z):   -5.000000E-05   -5.000000E-05    7.703333E-01
     TEMPORAL STATISTIC: RMS
 322 ID: RHRRPUL_rms
     QUANTITY: RHRRPUL
     Coordinates (X,Y,Z):   -5.000000E-05   -5.000000E-05    7.753030E-01
     TEMPORAL STATISTIC: RMS
 323 ID: RHRRPUL_rms
     QUANTITY: RHRRPUL
     Coordinates (X,Y,Z):   -5.000000E-05   -5.000000E-05    7.802727E-01
     TEMPORAL STATISTIC: RMS
 324 ID: RHRRPUL_rms
     QUANTITY: RHRRPUL
     Coordinates (X,Y,Z):   -5.000000E-05   -5.000000E-05    7.852424E-01
     TEMPORAL STATISTIC: RMS
 325 ID: RHRRPUL_rms
     QUANTITY: RHRRPUL
     Coordinates (X,Y,Z):   -5.000000E-05   -5.000000E-05    7.902121E-01
     TEMPORAL STATISTIC: RMS
 326 ID: RHRRPUL_rms
     QUANTITY: RHRRPUL
     Coordinates (X,Y,Z):   -5.000000E-05   -5.000000E-05    7.951818E-01
     TEMPORAL STATISTIC: RMS
 327 ID: RHRRPUL_rms
     QUANTITY: RHRRPUL
     Coordinates (X,Y,Z):   -5.000000E-05   -5.000000E-05    8.001515E-01
     TEMPORAL STATISTIC: RMS
 328 ID: RHRRPUL_rms
     QUANTITY: RHRRPUL
     Coordinates (X,Y,Z):   -5.000000E-05   -5.000000E-05    8.051212E-01
     TEMPORAL STATISTIC: RMS
 329 ID: RHRRPUL_rms
     QUANTITY: RHRRPUL
     Coordinates (X,Y,Z):   -5.000000E-05   -5.000000E-05    8.100909E-01
     TEMPORAL STATISTIC: RMS
 330 ID: RHRRPUL_rms
     QUANTITY: RHRRPUL
     Coordinates (X,Y,Z):   -5.000000E-05   -5.000000E-05    8.150606E-01
     TEMPORAL STATISTIC: RMS
 331 ID: RHRRPUL_rms
     QUANTITY: RHRRPUL
     Coordinates (X,Y,Z):   -5.000000E-05   -5.000000E-05    8.200303E-01
     TEMPORAL STATISTIC: RMS
 332 ID: RHRRPUL_rms
     QUANTITY: RHRRPUL
     Coordinates (X,Y,Z):   -5.000000E-05   -5.000000E-05    8.250000E-01
     TEMPORAL STATISTIC: RMS
 333 ID: T_1p0D
     QUANTITY: TEMPERATURE
     Coordinates (X,Y,Z):   -5.000000E-03   -5.000000E-05    1.520000E-01
     TEMPORAL STATISTIC: RUNNING AVERAGE
 334 ID: T_1p0D
     QUANTITY: TEMPERATURE
     Coordinates (X,Y,Z):   -2.000000E-04   -5.000000E-05    1.520000E-01
     TEMPORAL STATISTIC: RUNNING AVERAGE
 335 ID: T_1p0D
     QUANTITY: TEMPERATURE
     Coordinates (X,Y,Z):    4.600000E-03   -5.000000E-05    1.520000E-01
     TEMPORAL STATISTIC: RUNNING AVERAGE
 336 ID: T_1p0D
     QUANTITY: TEMPERATURE
     Coordinates (X,Y,Z):    9.400000E-03   -5.000000E-05    1.520000E-01
     TEMPORAL STATISTIC: RUNNING AVERAGE
 337 ID: T_1p0D
     QUANTITY: TEMPERATURE
     Coordinates (X,Y,Z):    1.420000E-02   -5.000000E-05    1.520000E-01
     TEMPORAL STATISTIC: RUNNING AVERAGE
 338 ID: T_1p0D
     QUANTITY: TEMPERATURE
     Coordinates (X,Y,Z):    1.900000E-02   -5.000000E-05    1.520000E-01
     TEMPORAL STATISTIC: RUNNING AVERAGE
 339 ID: T_1p0D
     QUANTITY: TEMPERATURE
     Coordinates (X,Y,Z):    2.380000E-02   -5.000000E-05    1.520000E-01
     TEMPORAL STATISTIC: RUNNING AVERAGE
 340 ID: T_1p0D
     QUANTITY: TEMPERATURE
     Coordinates (X,Y,Z):    2.860000E-02   -5.000000E-05    1.520000E-01
     TEMPORAL STATISTIC: RUNNING AVERAGE
 341 ID: T_1p0D
     QUANTITY: TEMPERATURE
     Coordinates (X,Y,Z):    3.340000E-02   -5.000000E-05    1.520000E-01
     TEMPORAL STATISTIC: RUNNING AVERAGE
 342 ID: T_1p0D
     QUANTITY: TEMPERATURE
     Coordinates (X,Y,Z):    3.820000E-02   -5.000000E-05    1.520000E-01
     TEMPORAL STATISTIC: RUNNING AVERAGE
 343 ID: T_1p0D
     QUANTITY: TEMPERATURE
     Coordinates (X,Y,Z):    4.300000E-02   -5.000000E-05    1.520000E-01
     TEMPORAL STATISTIC: RUNNING AVERAGE
 344 ID: T_1p0D
     QUANTITY: TEMPERATURE
     Coordinates (X,Y,Z):    4.780000E-02   -5.000000E-05    1.520000E-01
     TEMPORAL STATISTIC: RUNNING AVERAGE
 345 ID: T_1p0D
     QUANTITY: TEMPERATURE
     Coordinates (X,Y,Z):    5.260000E-02   -5.000000E-05    1.520000E-01
     TEMPORAL STATISTIC: RUNNING AVERAGE
 346 ID: T_1p0D
     QUANTITY: TEMPERATURE
     Coordinates (X,Y,Z):    5.740000E-02   -5.000000E-05    1.520000E-01
     TEMPORAL STATISTIC: RUNNING AVERAGE
 347 ID: T_1p0D
     QUANTITY: TEMPERATURE
     Coordinates (X,Y,Z):    6.220000E-02   -5.000000E-05    1.520000E-01
     TEMPORAL STATISTIC: RUNNING AVERAGE
 348 ID: T_1p0D
     QUANTITY: TEMPERATURE
     Coordinates (X,Y,Z):    6.700000E-02   -5.000000E-05    1.520000E-01
     TEMPORAL STATISTIC: RUNNING AVERAGE
 349 ID: T_1p0D
     QUANTITY: TEMPERATURE
     Coordinates (X,Y,Z):    7.180000E-02   -5.000000E-05    1.520000E-01
     TEMPORAL STATISTIC: RUNNING AVERAGE
 350 ID: T_1p0D
     QUANTITY: TEMPERATURE
     Coordinates (X,Y,Z):    7.660000E-02   -5.000000E-05    1.520000E-01
     TEMPORAL STATISTIC: RUNNING AVERAGE
 351 ID: T_1p0D
     QUANTITY: TEMPERATURE
     Coordinates (X,Y,Z):    8.140000E-02   -5.000000E-05    1.520000E-01
     TEMPORAL STATISTIC: RUNNING AVERAGE
 352 ID: T_1p0D
     QUANTITY: TEMPERATURE
     Coordinates (X,Y,Z):    8.620000E-02   -5.000000E-05    1.520000E-01
     TEMPORAL STATISTIC: RUNNING AVERAGE
 353 ID: T_1p0D
     QUANTITY: TEMPERATURE
     Coordinates (X,Y,Z):    9.100000E-02   -5.000000E-05    1.520000E-01
     TEMPORAL STATISTIC: RUNNING AVERAGE
 354 ID: T_1p0D
     QUANTITY: TEMPERATURE
     Coordinates (X,Y,Z):    9.580000E-02   -5.000000E-05    1.520000E-01
     TEMPORAL STATISTIC: RUNNING AVERAGE
 355 ID: T_1p0D
     QUANTITY: TEMPERATURE
     Coordinates (X,Y,Z):    1.006000E-01   -5.000000E-05    1.520000E-01
     TEMPORAL STATISTIC: RUNNING AVERAGE
 356 ID: T_1p0D
     QUANTITY: TEMPERATURE
     Coordinates (X,Y,Z):    1.054000E-01   -5.000000E-05    1.520000E-01
     TEMPORAL STATISTIC: RUNNING AVERAGE
 357 ID: T_1p0D
     QUANTITY: TEMPERATURE
     Coordinates (X,Y,Z):    1.102000E-01   -5.000000E-05    1.520000E-01
     TEMPORAL STATISTIC: RUNNING AVERAGE
 358 ID: T_1p0D
     QUANTITY: TEMPERATURE
     Coordinates (X,Y,Z):    1.150000E-01   -5.000000E-05    1.520000E-01
     TEMPORAL STATISTIC: RUNNING AVERAGE
 359 ID: T_1p5D
     QUANTITY: TEMPERATURE
     Coordinates (X,Y,Z):   -5.000000E-03   -5.000000E-05    2.280000E-01
     TEMPORAL STATISTIC: RUNNING AVERAGE
 360 ID: T_1p5D
     QUANTITY: TEMPERATURE
     Coordinates (X,Y,Z):   -2.000000E-04   -5.000000E-05    2.280000E-01
     TEMPORAL STATISTIC: RUNNING AVERAGE
 361 ID: T_1p5D
     QUANTITY: TEMPERATURE
     Coordinates (X,Y,Z):    4.600000E-03   -5.000000E-05    2.280000E-01
     TEMPORAL STATISTIC: RUNNING AVERAGE
 362 ID: T_1p5D
     QUANTITY: TEMPERATURE
     Coordinates (X,Y,Z):    9.400000E-03   -5.000000E-05    2.280000E-01
     TEMPORAL STATISTIC: RUNNING AVERAGE
 363 ID: T_1p5D
     QUANTITY: TEMPERATURE
     Coordinates (X,Y,Z):    1.420000E-02   -5.000000E-05    2.280000E-01
     TEMPORAL STATISTIC: RUNNING AVERAGE
 364 ID: T_1p5D
     QUANTITY: TEMPERATURE
     Coordinates (X,Y,Z):    1.900000E-02   -5.000000E-05    2.280000E-01
     TEMPORAL STATISTIC: RUNNING AVERAGE
 365 ID: T_1p5D
     QUANTITY: TEMPERATURE
     Coordinates (X,Y,Z):    2.380000E-02   -5.000000E-05    2.280000E-01
     TEMPORAL STATISTIC: RUNNING AVERAGE
 366 ID: T_1p5D
     QUANTITY: TEMPERATURE
     Coordinates (X,Y,Z):    2.860000E-02   -5.000000E-05    2.280000E-01
     TEMPORAL STATISTIC: RUNNING AVERAGE
 367 ID: T_1p5D
     QUANTITY: TEMPERATURE
     Coordinates (X,Y,Z):    3.340000E-02   -5.000000E-05    2.280000E-01
     TEMPORAL STATISTIC: RUNNING AVERAGE
 368 ID: T_1p5D
     QUANTITY: TEMPERATURE
     Coordinates (X,Y,Z):    3.820000E-02   -5.000000E-05    2.280000E-01
     TEMPORAL STATISTIC: RUNNING AVERAGE
 369 ID: T_1p5D
     QUANTITY: TEMPERATURE
     Coordinates (X,Y,Z):    4.300000E-02   -5.000000E-05    2.280000E-01
     TEMPORAL STATISTIC: RUNNING AVERAGE
 370 ID: T_1p5D
     QUANTITY: TEMPERATURE
     Coordinates (X,Y,Z):    4.780000E-02   -5.000000E-05    2.280000E-01
     TEMPORAL STATISTIC: RUNNING AVERAGE
 371 ID: T_1p5D
     QUANTITY: TEMPERATURE
     Coordinates (X,Y,Z):    5.260000E-02   -5.000000E-05    2.280000E-01
     TEMPORAL STATISTIC: RUNNING AVERAGE
 372 ID: T_1p5D
     QUANTITY: TEMPERATURE
     Coordinates (X,Y,Z):    5.740000E-02   -5.000000E-05    2.280000E-01
     TEMPORAL STATISTIC: RUNNING AVERAGE
 373 ID: T_1p5D
     QUANTITY: TEMPERATURE
     Coordinates (X,Y,Z):    6.220000E-02   -5.000000E-05    2.280000E-01
     TEMPORAL STATISTIC: RUNNING AVERAGE
 374 ID: T_1p5D
     QUANTITY: TEMPERATURE
     Coordinates (X,Y,Z):    6.700000E-02   -5.000000E-05    2.280000E-01
     TEMPORAL STATISTIC: RUNNING AVERAGE
 375 ID: T_1p5D
     QUANTITY: TEMPERATURE
     Coordinates (X,Y,Z):    7.180000E-02   -5.000000E-05    2.280000E-01
     TEMPORAL STATISTIC: RUNNING AVERAGE
 376 ID: T_1p5D
     QUANTITY: TEMPERATURE
     Coordinates (X,Y,Z):    7.660000E-02   -5.000000E-05    2.280000E-01
     TEMPORAL STATISTIC: RUNNING AVERAGE
 377 ID: T_1p5D
     QUANTITY: TEMPERATURE
     Coordinates (X,Y,Z):    8.140000E-02   -5.000000E-05    2.280000E-01
     TEMPORAL STATISTIC: RUNNING AVERAGE
 378 ID: T_1p5D
     QUANTITY: TEMPERATURE
     Coordinates (X,Y,Z):    8.620000E-02   -5.000000E-05    2.280000E-01
     TEMPORAL STATISTIC: RUNNING AVERAGE
 379 ID: T_1p5D
     QUANTITY: TEMPERATURE
     Coordinates (X,Y,Z):    9.100000E-02   -5.000000E-05    2.280000E-01
     TEMPORAL STATISTIC: RUNNING AVERAGE
 380 ID: T_1p5D
     QUANTITY: TEMPERATURE
     Coordinates (X,Y,Z):    9.580000E-02   -5.000000E-05    2.280000E-01
     TEMPORAL STATISTIC: RUNNING AVERAGE
 381 ID: T_1p5D
     QUANTITY: TEMPERATURE
     Coordinates (X,Y,Z):    1.006000E-01   -5.000000E-05    2.280000E-01
     TEMPORAL STATISTIC: RUNNING AVERAGE
 382 ID: T_1p5D
     QUANTITY: TEMPERATURE
     Coordinates (X,Y,Z):    1.054000E-01   -5.000000E-05    2.280000E-01
     TEMPORAL STATISTIC: RUNNING AVERAGE
 383 ID: T_1p5D
     QUANTITY: TEMPERATURE
     Coordinates (X,Y,Z):    1.102000E-01   -5.000000E-05    2.280000E-01
     TEMPORAL STATISTIC: RUNNING AVERAGE
 384 ID: T_1p5D
     QUANTITY: TEMPERATURE
     Coordinates (X,Y,Z):    1.150000E-01   -5.000000E-05    2.280000E-01
     TEMPORAL STATISTIC: RUNNING AVERAGE
 385 ID: T_2p0D
     QUANTITY: TEMPERATURE
     Coordinates (X,Y,Z):   -5.000000E-03   -5.000000E-05    3.040000E-01
     TEMPORAL STATISTIC: RUNNING AVERAGE
 386 ID: T_2p0D
     QUANTITY: TEMPERATURE
     Coordinates (X,Y,Z):   -2.000000E-04   -5.000000E-05    3.040000E-01
     TEMPORAL STATISTIC: RUNNING AVERAGE
 387 ID: T_2p0D
     QUANTITY: TEMPERATURE
     Coordinates (X,Y,Z):    4.600000E-03   -5.000000E-05    3.040000E-01
     TEMPORAL STATISTIC: RUNNING AVERAGE
 388 ID: T_2p0D
     QUANTITY: TEMPERATURE
     Coordinates (X,Y,Z):    9.400000E-03   -5.000000E-05    3.040000E-01
     TEMPORAL STATISTIC: RUNNING AVERAGE
 389 ID: T_2p0D
     QUANTITY: TEMPERATURE
     Coordinates (X,Y,Z):    1.420000E-02   -5.000000E-05    3.040000E-01
     TEMPORAL STATISTIC: RUNNING AVERAGE
 390 ID: T_2p0D
     QUANTITY: TEMPERATURE
     Coordinates (X,Y,Z):    1.900000E-02   -5.000000E-05    3.040000E-01
     TEMPORAL STATISTIC: RUNNING AVERAGE
 391 ID: T_2p0D
     QUANTITY: TEMPERATURE
     Coordinates (X,Y,Z):    2.380000E-02   -5.000000E-05    3.040000E-01
     TEMPORAL STATISTIC: RUNNING AVERAGE
 392 ID: T_2p0D
     QUANTITY: TEMPERATURE
     Coordinates (X,Y,Z):    2.860000E-02   -5.000000E-05    3.040000E-01
     TEMPORAL STATISTIC: RUNNING AVERAGE
 393 ID: T_2p0D
     QUANTITY: TEMPERATURE
     Coordinates (X,Y,Z):    3.340000E-02   -5.000000E-05    3.040000E-01
     TEMPORAL STATISTIC: RUNNING AVERAGE
 394 ID: T_2p0D
     QUANTITY: TEMPERATURE
     Coordinates (X,Y,Z):    3.820000E-02   -5.000000E-05    3.040000E-01
     TEMPORAL STATISTIC: RUNNING AVERAGE
 395 ID: T_2p0D
     QUANTITY: TEMPERATURE
     Coordinates (X,Y,Z):    4.300000E-02   -5.000000E-05    3.040000E-01
     TEMPORAL STATISTIC: RUNNING AVERAGE
 396 ID: T_2p0D
     QUANTITY: TEMPERATURE
     Coordinates (X,Y,Z):    4.780000E-02   -5.000000E-05    3.040000E-01
     TEMPORAL STATISTIC: RUNNING AVERAGE
 397 ID: T_2p0D
     QUANTITY: TEMPERATURE
     Coordinates (X,Y,Z):    5.260000E-02   -5.000000E-05    3.040000E-01
     TEMPORAL STATISTIC: RUNNING AVERAGE
 398 ID: T_2p0D
     QUANTITY: TEMPERATURE
     Coordinates (X,Y,Z):    5.740000E-02   -5.000000E-05    3.040000E-01
     TEMPORAL STATISTIC: RUNNING AVERAGE
 399 ID: T_2p0D
     QUANTITY: TEMPERATURE
     Coordinates (X,Y,Z):    6.220000E-02   -5.000000E-05    3.040000E-01
     TEMPORAL STATISTIC: RUNNING AVERAGE
 400 ID: T_2p0D
     QUANTITY: TEMPERATURE
     Coordinates (X,Y,Z):    6.700000E-02   -5.000000E-05    3.040000E-01
     TEMPORAL STATISTIC: RUNNING AVERAGE
 401 ID: T_2p0D
     QUANTITY: TEMPERATURE
     Coordinates (X,Y,Z):    7.180000E-02   -5.000000E-05    3.040000E-01
     TEMPORAL STATISTIC: RUNNING AVERAGE
 402 ID: T_2p0D
     QUANTITY: TEMPERATURE
     Coordinates (X,Y,Z):    7.660000E-02   -5.000000E-05    3.040000E-01
     TEMPORAL STATISTIC: RUNNING AVERAGE
 403 ID: T_2p0D
     QUANTITY: TEMPERATURE
     Coordinates (X,Y,Z):    8.140000E-02   -5.000000E-05    3.040000E-01
     TEMPORAL STATISTIC: RUNNING AVERAGE
 404 ID: T_2p0D
     QUANTITY: TEMPERATURE
     Coordinates (X,Y,Z):    8.620000E-02   -5.000000E-05    3.040000E-01
     TEMPORAL STATISTIC: RUNNING AVERAGE
 405 ID: T_2p0D
     QUANTITY: TEMPERATURE
     Coordinates (X,Y,Z):    9.100000E-02   -5.000000E-05    3.040000E-01
     TEMPORAL STATISTIC: RUNNING AVERAGE
 406 ID: T_2p0D
     QUANTITY: TEMPERATURE
     Coordinates (X,Y,Z):    9.580000E-02   -5.000000E-05    3.040000E-01
     TEMPORAL STATISTIC: RUNNING AVERAGE
 407 ID: T_2p0D
     QUANTITY: TEMPERATURE
     Coordinates (X,Y,Z):    1.006000E-01   -5.000000E-05    3.040000E-01
     TEMPORAL STATISTIC: RUNNING AVERAGE
 408 ID: T_2p0D
     QUANTITY: TEMPERATURE
     Coordinates (X,Y,Z):    1.054000E-01   -5.000000E-05    3.040000E-01
     TEMPORAL STATISTIC: RUNNING AVERAGE
 409 ID: T_2p0D
     QUANTITY: TEMPERATURE
     Coordinates (X,Y,Z):    1.102000E-01   -5.000000E-05    3.040000E-01
     TEMPORAL STATISTIC: RUNNING AVERAGE
 410 ID: T_2p0D
     QUANTITY: TEMPERATURE
     Coordinates (X,Y,Z):    1.150000E-01   -5.000000E-05    3.040000E-01
     TEMPORAL STATISTIC: RUNNING AVERAGE
 411 ID: T_2p5D
     QUANTITY: TEMPERATURE
     Coordinates (X,Y,Z):   -5.000000E-03   -5.000000E-05    3.800000E-01
     TEMPORAL STATISTIC: RUNNING AVERAGE
 412 ID: T_2p5D
     QUANTITY: TEMPERATURE
     Coordinates (X,Y,Z):   -2.000000E-04   -5.000000E-05    3.800000E-01
     TEMPORAL STATISTIC: RUNNING AVERAGE
 413 ID: T_2p5D
     QUANTITY: TEMPERATURE
     Coordinates (X,Y,Z):    4.600000E-03   -5.000000E-05    3.800000E-01
     TEMPORAL STATISTIC: RUNNING AVERAGE
 414 ID: T_2p5D
     QUANTITY: TEMPERATURE
     Coordinates (X,Y,Z):    9.400000E-03   -5.000000E-05    3.800000E-01
     TEMPORAL STATISTIC: RUNNING AVERAGE
 415 ID: T_2p5D
     QUANTITY: TEMPERATURE
     Coordinates (X,Y,Z):    1.420000E-02   -5.000000E-05    3.800000E-01
     TEMPORAL STATISTIC: RUNNING AVERAGE
 416 ID: T_2p5D
     QUANTITY: TEMPERATURE
     Coordinates (X,Y,Z):    1.900000E-02   -5.000000E-05    3.800000E-01
     TEMPORAL STATISTIC: RUNNING AVERAGE
 417 ID: T_2p5D
     QUANTITY: TEMPERATURE
     Coordinates (X,Y,Z):    2.380000E-02   -5.000000E-05    3.800000E-01
     TEMPORAL STATISTIC: RUNNING AVERAGE
 418 ID: T_2p5D
     QUANTITY: TEMPERATURE
     Coordinates (X,Y,Z):    2.860000E-02   -5.000000E-05    3.800000E-01
     TEMPORAL STATISTIC: RUNNING AVERAGE
 419 ID: T_2p5D
     QUANTITY: TEMPERATURE
     Coordinates (X,Y,Z):    3.340000E-02   -5.000000E-05    3.800000E-01
     TEMPORAL STATISTIC: RUNNING AVERAGE
 420 ID: T_2p5D
     QUANTITY: TEMPERATURE
     Coordinates (X,Y,Z):    3.820000E-02   -5.000000E-05    3.800000E-01
     TEMPORAL STATISTIC: RUNNING AVERAGE
 421 ID: T_2p5D
[...]
 Time Step:  14600, Simulation Time:      8.37 s, Step Size: 0.00066 s, Pressure Iterations: 8
 Time Step:  14700, Simulation Time:      8.43 s, Step Size: 0.00052 s, Pressure Iterations: 10
 Time Step:  14800, Simulation Time:      8.48 s, Step Size: 0.00051 s, Pressure Iterations: 7
 Time Step:  14900, Simulation Time:      8.54 s, Step Size: 0.00056 s, Pressure Iterations: 8
 Time Step:  15000, Simulation Time:      8.59 s, Step Size: 0.00056 s, Pressure Iterations: 9
 Time Step:  15100, Simulation Time:      8.65 s, Step Size: 0.00056 s, Pressure Iterations: 7
 Time Step:  15200, Simulation Time:      8.71 s, Step Size: 0.00067 s, Pressure Iterations: 8
 Time Step:  15300, Simulation Time:      8.77 s, Step Size: 0.00060 s, Pressure Iterations: 10
 Time Step:  15400, Simulation Time:      8.83 s, Step Size: 0.00052 s, Pressure Iterations: 10
 Time Step:  15500, Simulation Time:      8.88 s, Step Size: 0.00058 s, Pressure Iterations: 10
 Time Step:  15600, Simulation Time:      8.94 s, Step Size: 0.00058 s, Pressure Iterations: 9
 Time Step:  15700, Simulation Time:      9.00 s, Step Size: 0.00063 s, Pressure Iterations: 7
 Time Step:  15800, Simulation Time:      9.07 s, Step Size: 0.00063 s, Pressure Iterations: 9
 Time Step:  15900, Simulation Time:      9.12 s, Step Size: 0.00049 s, Pressure Iterations: 8
 Time Step:  16000, Simulation Time:      9.17 s, Step Size: 0.00054 s, Pressure Iterations: 8
 Time Step:  16100, Simulation Time:      9.23 s, Step Size: 0.00053 s, Pressure Iterations: 9
 Time Step:  16200, Simulation Time:      9.29 s, Step Size: 0.00059 s, Pressure Iterations: 8
 Time Step:  16300, Simulation Time:      9.35 s, Step Size: 0.00065 s, Pressure Iterations: 7
 Time Step:  16400, Simulation Time:      9.41 s, Step Size: 0.00063 s, Pressure Iterations: 10
 Time Step:  16500, Simulation Time:      9.47 s, Step Size: 0.00050 s, Pressure Iterations: 10
 Time Step:  16600, Simulation Time:      9.52 s, Step Size: 0.00055 s, Pressure Iterations: 8
 Time Step:  16700, Simulation Time:      9.58 s, Step Size: 0.00061 s, Pressure Iterations: 9
 Time Step:  16800, Simulation Time:      9.64 s, Step Size: 0.00060 s, Pressure Iterations: 8
 Time Step:  16900, Simulation Time:      9.70 s, Step Size: 0.00066 s, Pressure Iterations: 10
 Time Step:  17000, Simulation Time:      9.76 s, Step Size: 0.00052 s, Pressure Iterations: 10
 Time Step:  17100, Simulation Time:      9.81 s, Step Size: 0.00050 s, Pressure Iterations: 7
 Time Step:  17200, Simulation Time:      9.86 s, Step Size: 0.00055 s, Pressure Iterations: 8
 Time Step:  17300, Simulation Time:      9.92 s, Step Size: 0.00055 s, Pressure Iterations: 10
 Time Step:  17400, Simulation Time:      9.97 s, Step Size: 0.00061 s, Pressure Iterations: 10
 Time Step:  17500, Simulation Time:     10.03 s, Step Size: 0.00060 s, Pressure Iterations: 9
 Time Step:  17600, Simulation Time:     10.09 s, Step Size: 0.00053 s, Pressure Iterations: 8
 Time Step:  17700, Simulation Time:     10.14 s, Step Size: 0.00052 s, Pressure Iterations: 7
 Time Step:  17800, Simulation Time:     10.20 s, Step Size: 0.00057 s, Pressure Iterations: 10
 Time Step:  17900, Simulation Time:     10.25 s, Step Size: 0.00050 s, Pressure Iterations: 8
 Time Step:  18000, Simulation Time:     10.31 s, Step Size: 0.00066 s, Pressure Iterations: 8
 Time Step:  18100, Simulation Time:     10.38 s, Step Size: 0.00059 s, Pressure Iterations: 10
 Time Step:  18200, Simulation Time:     10.43 s, Step Size: 0.00053 s, Pressure Iterations: 9
 Time Step:  18300, Simulation Time:     10.49 s, Step Size: 0.00051 s, Pressure Iterations: 8
 Time Step:  18400, Simulation Time:     10.54 s, Step Size: 0.00056 s, Pressure Iterations: 10
 Time Step:  18500, Simulation Time:     10.60 s, Step Size: 0.00056 s, Pressure Iterations: 9
 Time Step:  18600, Simulation Time:     10.66 s, Step Size: 0.00062 s, Pressure Iterations: 7
 Time Step:  18700, Simulation Time:     10.72 s, Step Size: 0.00054 s, Pressure Iterations: 10
 Time Step:  18800, Simulation Time:     10.77 s, Step Size: 0.00049 s, Pressure Iterations: 9
 Time Step:  18900, Simulation Time:     10.83 s, Step Size: 0.00059 s, Pressure Iterations: 8
 Time Step:  19000, Simulation Time:     10.89 s, Step Size: 0.00053 s, Pressure Iterations: 10
 Time Step:  19100, Simulation Time:     10.94 s, Step Size: 0.00058 s, Pressure Iterations: 8
 Time Step:  19200, Simulation Time:     11.00 s, Step Size: 0.00064 s, Pressure Iterations: 10
 Time Step:  19300, Simulation Time:     11.06 s, Step Size: 0.00050 s, Pressure Iterations: 10
 Time Step:  19400, Simulation Time:     11.11 s, Step Size: 0.00050 s, Pressure Iterations: 9
 Time Step:  19500, Simulation Time:     11.17 s, Step Size: 0.00049 s, Pressure Iterations: 8
 Time Step:  19600, Simulation Time:     11.22 s, Step Size: 0.00054 s, Pressure Iterations: 10
 Time Step:  19700, Simulation Time:     11.27 s, Step Size: 0.00060 s, Pressure Iterations: 7
 Time Step:  19800, Simulation Time:     11.34 s, Step Size: 0.00066 s, Pressure Iterations: 10
 Time Step:  19900, Simulation Time:     11.40 s, Step Size: 0.00053 s, Pressure Iterations: 9
 Time Step:  20000, Simulation Time:     11.45 s, Step Size: 0.00057 s, Pressure Iterations: 10
 Time Step:  20100, Simulation Time:     11.51 s, Step Size: 0.00057 s, Pressure Iterations: 10
 Time Step:  20200, Simulation Time:     11.57 s, Step Size: 0.00057 s, Pressure Iterations: 10
 Time Step:  20300, Simulation Time:     11.63 s, Step Size: 0.00069 s, Pressure Iterations: 9
 Time Step:  20400, Simulation Time:     11.69 s, Step Size: 0.00056 s, Pressure Iterations: 10
 Time Step:  20500, Simulation Time:     11.75 s, Step Size: 0.00049 s, Pressure Iterations: 9
 Time Step:  20600, Simulation Time:     11.80 s, Step Size: 0.00060 s, Pressure Iterations: 7
 Time Step:  20700, Simulation Time:     11.85 s, Step Size: 0.00058 s, Pressure Iterations: 8
 Time Step:  20800, Simulation Time:     11.91 s, Step Size: 0.00058 s, Pressure Iterations: 9
 Time Step:  20900, Simulation Time:     11.98 s, Step Size: 0.00071 s, Pressure Iterations: 10
 Time Step:  21000, Simulation Time:     12.04 s, Step Size: 0.00055 s, Pressure Iterations: 9
 Time Step:  21100, Simulation Time:     12.09 s, Step Size: 0.00054 s, Pressure Iterations: 10
 Time Step:  21200, Simulation Time:     12.15 s, Step Size: 0.00059 s, Pressure Iterations: 8
 Time Step:  21300, Simulation Time:     12.21 s, Step Size: 0.00053 s, Pressure Iterations: 8
 Time Step:  21400, Simulation Time:     12.26 s, Step Size: 0.00058 s, Pressure Iterations: 9
 Time Step:  21500, Simulation Time:     12.33 s, Step Size: 0.00070 s, Pressure Iterations: 10
 Time Step:  21600, Simulation Time:     12.38 s, Step Size: 0.00050 s, Pressure Iterations: 10
 Time Step:  21700, Simulation Time:     12.43 s, Step Size: 0.00048 s, Pressure Iterations: 8
 Time Step:  21800, Simulation Time:     12.48 s, Step Size: 0.00053 s, Pressure Iterations: 10
 Time Step:  21900, Simulation Time:     12.54 s, Step Size: 0.00053 s, Pressure Iterations: 9
 Time Step:  22000, Simulation Time:     12.59 s, Step Size: 0.00062 s, Pressure Iterations: 8
 Time Step:  22100, Simulation Time:     12.66 s, Step Size: 0.00061 s, Pressure Iterations: 9
 Time Step:  22200, Simulation Time:     12.72 s, Step Size: 0.00053 s, Pressure Iterations: 10
 Time Step:  22300, Simulation Time:     12.77 s, Step Size: 0.00052 s, Pressure Iterations: 8
 Time Step:  22400, Simulation Time:     12.83 s, Step Size: 0.00057 s, Pressure Iterations: 10
 Time Step:  22500, Simulation Time:     12.88 s, Step Size: 0.00060 s, Pressure Iterations: 10
 Time Step:  22600, Simulation Time:     12.94 s, Step Size: 0.00066 s, Pressure Iterations: 10
 Time Step:  22700, Simulation Time:     13.01 s, Step Size: 0.00059 s, Pressure Iterations: 10
 Time Step:  22800, Simulation Time:     13.06 s, Step Size: 0.00051 s, Pressure Iterations: 10
 Time Step:  22900, Simulation Time:     13.11 s, Step Size: 0.00051 s, Pressure Iterations: 8
 Time Step:  23000, Simulation Time:     13.16 s, Step Size: 0.00051 s, Pressure Iterations: 8
 Time Step:  23100, Simulation Time:     13.21 s, Step Size: 0.00057 s, Pressure Iterations: 9
 Time Step:  23200, Simulation Time:     13.28 s, Step Size: 0.00069 s, Pressure Iterations: 8
 Time Step:  23300, Simulation Time:     13.34 s, Step Size: 0.00061 s, Pressure Iterations: 10
 Time Step:  23400, Simulation Time:     13.39 s, Step Size: 0.00054 s, Pressure Iterations: 9
 Time Step:  23500, Simulation Time:     13.45 s, Step Size: 0.00054 s, Pressure Iterations: 10
 Time Step:  23600, Simulation Time:     13.50 s, Step Size: 0.00059 s, Pressure Iterations: 9
 Time Step:  23700, Simulation Time:     13.56 s, Step Size: 0.00058 s, Pressure Iterations: 10
 Time Step:  23800, Simulation Time:     13.62 s, Step Size: 0.00070 s, Pressure Iterations: 10
 Time Step:  23900, Simulation Time:     13.68 s, Step Size: 0.00050 s, Pressure Iterations: 10
 Time Step:  24000, Simulation Time:     13.73 s, Step Size: 0.00050 s, Pressure Iterations: 7
 Time Step:  24100, Simulation Time:     13.79 s, Step Size: 0.00054 s, Pressure Iterations: 9
 Time Step:  24200, Simulation Time:     13.84 s, Step Size: 0.00054 s, Pressure Iterations: 7
 Time Step:  24300, Simulation Time:     13.90 s, Step Size: 0.00060 s, Pressure Iterations: 8
 Time Step:  24400, Simulation Time:     13.96 s, Step Size: 0.00065 s, Pressure Iterations: 10
 Time Step:  24500, Simulation Time:     14.02 s, Step Size: 0.00051 s, Pressure Iterations: 10
 Time Step:  24600, Simulation Time:     14.07 s, Step Size: 0.00056 s, Pressure Iterations: 8
 Time Step:  24700, Simulation Time:     14.13 s, Step Size: 0.00056 s, Pressure Iterations: 10
 Time Step:  24800, Simulation Time:     14.19 s, Step Size: 0.00056 s, Pressure Iterations: 9
 Time Step:  24900, Simulation Time:     14.24 s, Step Size: 0.00061 s, Pressure Iterations: 8
 Time Step:  25000, Simulation Time:     14.31 s, Step Size: 0.00057 s, Pressure Iterations: 10
 Time Step:  25100, Simulation Time:     14.36 s, Step Size: 0.00050 s, Pressure Iterations: 10
 Time Step:  25200, Simulation Time:     14.41 s, Step Size: 0.00050 s, Pressure Iterations: 7
 Time Step:  25300, Simulation Time:     14.47 s, Step Size: 0.00055 s, Pressure Iterations: 8
 Time Step:  25400, Simulation Time:     14.52 s, Step Size: 0.00054 s, Pressure Iterations: 7
 Time Step:  25500, Simulation Time:     14.58 s, Step Size: 0.00065 s, Pressure Iterations: 8
 Time Step:  25600, Simulation Time:     14.64 s, Step Size: 0.00057 s, Pressure Iterations: 10
 Time Step:  25700, Simulation Time:     14.69 s, Step Size: 0.00051 s, Pressure Iterations: 10
 Time Step:  25800, Simulation Time:     14.75 s, Step Size: 0.00056 s, Pressure Iterations: 10
 Time Step:  25900, Simulation Time:     14.80 s, Step Size: 0.00054 s, Pressure Iterations: 8
 Time Step:  26000, Simulation Time:     14.86 s, Step Size: 0.00066 s, Pressure Iterations: 10
 Time Step:  26100, Simulation Time:     14.93 s, Step Size: 0.00072 s, Pressure Iterations: 10
 Time Step:  26200, Simulation Time:     14.99 s, Step Size: 0.00052 s, Pressure Iterations: 10
 Time Step:  26300, Simulation Time:     15.04 s, Step Size: 0.00055 s, Pressure Iterations: 10
 Time Step:  26400, Simulation Time:     15.09 s, Step Size: 0.00055 s, Pressure Iterations: 9
 Time Step:  26500, Simulation Time:     15.15 s, Step Size: 0.00049 s, Pressure Iterations: 8
 Time Step:  26600, Simulation Time:     15.20 s, Step Size: 0.00066 s, Pressure Iterations: 8
 Time Step:  26700, Simulation Time:     15.27 s, Step Size: 0.00065 s, Pressure Iterations: 10
 Time Step:  26800, Simulation Time:     15.33 s, Step Size: 0.00052 s, Pressure Iterations: 10
 Time Step:  26900, Simulation Time:     15.38 s, Step Size: 0.00057 s, Pressure Iterations: 8
 Time Step:  27000, Simulation Time:     15.43 s, Step Size: 0.00057 s, Pressure Iterations: 10
 Time Step:  27100, Simulation Time:     15.49 s, Step Size: 0.00051 s, Pressure Iterations: 10
 Time Step:  27200, Simulation Time:     15.54 s, Step Size: 0.00061 s, Pressure Iterations: 7
 Time Step:  27300, Simulation Time:     15.61 s, Step Size: 0.00054 s, Pressure Iterations: 10
 Time Step:  27400, Simulation Time:     15.66 s, Step Size: 0.00052 s, Pressure Iterations: 10
 Time Step:  27500, Simulation Time:     15.71 s, Step Size: 0.00057 s, Pressure Iterations: 8
 Time Step:  27600, Simulation Time:     15.76 s, Step Size: 0.00051 s, Pressure Iterations: 9
 Time Step:  27700, Simulation Time:     15.82 s, Step Size: 0.00056 s, Pressure Iterations: 8
 Time Step:  27800, Simulation Time:     15.88 s, Step Size: 0.00062 s, Pressure Iterations: 7
 Time Step:  27900, Simulation Time:     15.94 s, Step Size: 0.00060 s, Pressure Iterations: 10
 Time Step:  28000, Simulation Time:     16.00 s, Step Size: 0.00048 s, Pressure Iterations: 10
 Time Step:  28100, Simulation Time:     16.05 s, Step Size: 0.00053 s, Pressure Iterations: 8
 Time Step:  28200, Simulation Time:     16.10 s, Step Size: 0.00053 s, Pressure Iterations: 10
 Time Step:  28300, Simulation Time:     16.16 s, Step Size: 0.00059 s, Pressure Iterations: 10
 Time Step:  28400, Simulation Time:     16.22 s, Step Size: 0.00064 s, Pressure Iterations: 9
 Time Step:  28500, Simulation Time:     16.28 s, Step Size: 0.00049 s, Pressure Iterations: 10
 Time Step:  28600, Simulation Time:     16.33 s, Step Size: 0.00048 s, Pressure Iterations: 8
 Time Step:  28700, Simulation Time:     16.38 s, Step Size: 0.00058 s, Pressure Iterations: 10
 Time Step:  28800, Simulation Time:     16.44 s, Step Size: 0.00052 s, Pressure Iterations: 8
 Time Step:  28900, Simulation Time:     16.49 s, Step Size: 0.00063 s, Pressure Iterations: 8
 Time Step:  29000, Simulation Time:     16.56 s, Step Size: 0.00069 s, Pressure Iterations: 9
 Time Step:  29100, Simulation Time:     16.62 s, Step Size: 0.00055 s, Pressure Iterations: 10
 Time Step:  29200, Simulation Time:     16.67 s, Step Size: 0.00054 s, Pressure Iterations: 9
 Time Step:  29300, Simulation Time:     16.73 s, Step Size: 0.00060 s, Pressure Iterations: 8
 Time Step:  29400, Simulation Time:     16.79 s, Step Size: 0.00059 s, Pressure Iterations: 10
 Time Step:  29500, Simulation Time:     16.85 s, Step Size: 0.00071 s, Pressure Iterations: 8
 Time Step:  29600, Simulation Time:     16.92 s, Step Size: 0.00050 s, Pressure Iterations: 10
 Time Step:  29700, Simulation Time:     16.96 s, Step Size: 0.00049 s, Pressure Iterations: 10
 Time Step:  29800, Simulation Time:     17.01 s, Step Size: 0.00054 s, Pressure Iterations: 8
 Time Step:  29900, Simulation Time:     17.07 s, Step Size: 0.00053 s, Pressure Iterations: 10
 Time Step:  30000, Simulation Time:     17.12 s, Step Size: 0.00053 s, Pressure Iterations: 8
 Time Step:  30100, Simulation Time:     17.18 s, Step Size: 0.00064 s, Pressure Iterations: 9
 Time Step:  30200, Simulation Time:     17.25 s, Step Size: 0.00063 s, Pressure Iterations: 10
 Time Step:  30300, Simulation Time:     17.30 s, Step Size: 0.00049 s, Pressure Iterations: 10
 Time Step:  30400, Simulation Time:     17.35 s, Step Size: 0.00054 s, Pressure Iterations: 9
 Time Step:  30500, Simulation Time:     17.41 s, Step Size: 0.00053 s, Pressure Iterations: 8
 Time Step:  30600, Simulation Time:     17.46 s, Step Size: 0.00053 s, Pressure Iterations: 7
 Time Step:  30700, Simulation Time:     17.52 s, Step Size: 0.00077 s, Pressure Iterations: 10
 Time Step:  30800, Simulation Time:     17.59 s, Step Size: 0.00048 s, Pressure Iterations: 10
 Time Step:  30900, Simulation Time:     17.63 s, Step Size: 0.00048 s, Pressure Iterations: 8
 Time Step:  31000, Simulation Time:     17.69 s, Step Size: 0.00053 s, Pressure Iterations: 8
 Time Step:  31100, Simulation Time:     17.74 s, Step Size: 0.00048 s, Pressure Iterations: 8
 Time Step:  31200, Simulation Time:     17.79 s, Step Size: 0.00058 s, Pressure Iterations: 7
 Time Step:  31300, Simulation Time:     17.85 s, Step Size: 0.00070 s, Pressure Iterations: 8
 Time Step:  31400, Simulation Time:     17.92 s, Step Size: 0.00056 s, Pressure Iterations: 10
 Time Step:  31500, Simulation Time:     17.97 s, Step Size: 0.00054 s, Pressure Iterations: 10
 Time Step:  31600, Simulation Time:     18.02 s, Step Size: 0.00054 s, Pressure Iterations: 8
 Time Step:  31700, Simulation Time:     18.08 s, Step Size: 0.00054 s, Pressure Iterations: 10
 Time Step:  31800, Simulation Time:     18.13 s, Step Size: 0.00060 s, Pressure Iterations: 7
 Time Step:  31900, Simulation Time:     18.20 s, Step Size: 0.00065 s, Pressure Iterations: 10
 Time Step:  32000, Simulation Time:     18.25 s, Step Size: 0.00045 s, Pressure Iterations: 10
 Time Step:  32100, Simulation Time:     18.30 s, Step Size: 0.00050 s, Pressure Iterations: 8
 Time Step:  32200, Simulation Time:     18.36 s, Step Size: 0.00055 s, Pressure Iterations: 10
 Time Step:  32300, Simulation Time:     18.41 s, Step Size: 0.00055 s, Pressure Iterations: 10
 Time Step:  32400, Simulation Time:     18.47 s, Step Size: 0.00060 s, Pressure Iterations: 8
 Time Step:  32500, Simulation Time:     18.53 s, Step Size: 0.00066 s, Pressure Iterations: 10
 Time Step:  32600, Simulation Time:     18.59 s, Step Size: 0.00052 s, Pressure Iterations: 10
 Time Step:  32700, Simulation Time:     18.65 s, Step Size: 0.00047 s, Pressure Iterations: 8
 Time Step:  32800, Simulation Time:     18.70 s, Step Size: 0.00051 s, Pressure Iterations: 10
 Time Step:  32900, Simulation Time:     18.74 s, Step Size: 0.00050 s, Pressure Iterations: 8
 Time Step:  33000, Simulation Time:     18.81 s, Step Size: 0.00067 s, Pressure Iterations: 9
 Time Step:  33100, Simulation Time:     18.87 s, Step Size: 0.00058 s, Pressure Iterations: 10
 Time Step:  33200, Simulation Time:     18.92 s, Step Size: 0.00050 s, Pressure Iterations: 10
 Time Step:  33300, Simulation Time:     18.97 s, Step Size: 0.00049 s, Pressure Iterations: 8
 Time Step:  33400, Simulation Time:     19.02 s, Step Size: 0.00049 s, Pressure Iterations: 7
 Time Step:  33500, Simulation Time:     19.07 s, Step Size: 0.00054 s, Pressure Iterations: 10
 Time Step:  33600, Simulation Time:     19.13 s, Step Size: 0.00065 s, Pressure Iterations: 8
 Time Step:  33700, Simulation Time:     19.20 s, Step Size: 0.00063 s, Pressure Iterations: 10
 Time Step:  33800, Simulation Time:     19.26 s, Step Size: 0.00050 s, Pressure Iterations: 10
 Time Step:  33900, Simulation Time:     19.31 s, Step Size: 0.00050 s, Pressure Iterations: 8
 Time Step:  34000, Simulation Time:     19.36 s, Step Size: 0.00054 s, Pressure Iterations: 8
 Time Step:  34100, Simulation Time:     19.41 s, Step Size: 0.00054 s, Pressure Iterations: 10
 Time Step:  34200, Simulation Time:     19.47 s, Step Size: 0.00071 s, Pressure Iterations: 8
 Time Step:  34300, Simulation Time:     19.54 s, Step Size: 0.00054 s, Pressure Iterations: 10
 Time Step:  34400, Simulation Time:     19.58 s, Step Size: 0.00048 s, Pressure Iterations: 10
 Time Step:  34500, Simulation Time:     19.63 s, Step Size: 0.00046 s, Pressure Iterations: 7
 Time Step:  34600, Simulation Time:     19.68 s, Step Size: 0.00051 s, Pressure Iterations: 8
 Time Step:  34700, Simulation Time:     19.73 s, Step Size: 0.00055 s, Pressure Iterations: 10
 Time Step:  34800, Simulation Time:     19.79 s, Step Size: 0.00067 s, Pressure Iterations: 8
 Time Step:  34900, Simulation Time:     19.86 s, Step Size: 0.00067 s, Pressure Iterations: 10
 Time Step:  35000, Simulation Time:     19.91 s, Step Size: 0.00053 s, Pressure Iterations: 10
 Time Step:  35100, Simulation Time:     19.96 s, Step Size: 0.00052 s, Pressure Iterations: 8
 Time Step:  35175, Simulation Time:     20.00 s, Step Size: 0.00034 s, Pressure Iterations: 10


 Time Stepping Wall Clock Time (s):    48560.922
 Total Elapsed Wall Clock Time (s):    48583.118

STOP: FDS completed successfully (CHID: FM_15cm_Burner_C2H4_19p0_5mm)
