
 Fire Dynamics Simulator

 Current Date     : August 17, 2023  22:04:11
 Revision         : FDS-6.8.0-564-g879930a-master
 Revision Date    : Wed Aug 16 13:01:02 2023 -0400
 Compiler         : ifort version 2021.7.1
 Compilation Date : Aug 16, 2023 16:46:52

 MPI Enabled;    Number of MPI Processes:     208
 OpenMP Disabled

 MPI version: 3.1
 MPI library version: Intel(R) MPI Library 2021.7 for Linux* OS


 Job TITLE        : LOI test for FM 15 cm burner
 Job ID string    : FM_15cm_Burner_C2H4_5mm


 Miscellaneous Parameters

   Simulation Start Time (s)          0.0
   Simulation End Time (s)           65.0
   Background Pressure (Pa)     101325.00
   Ambient Temperature (C)          20.00

   3D Cartesian
   LES Calculation
   Eddy Viscosity Model:  Deardorff (C_DEARDORFF = 0.10)
   Surface side wall Eddy Viscosity Model:  WALE (C_WALE = 0.60)
   Surface wall Eddy Viscosity Model:  WALE (C_WALE = 0.60)
   Surface burner Eddy Viscosity Model:  WALE (C_WALE = 0.60)
   Surface coflow Eddy Viscosity Model:  WALE (C_WALE = 0.60)
   Surface pilot Eddy Viscosity Model:  WALE (C_WALE = 0.60)
   Turbulent Prandtl Number:         0.50
   Turbulent Schmidt Number:         0.50


 Pressure solver information

   Solver:                          ULMAT
   Velocity tolerance (m/s):    2.500E-03
   Press eqn res tol (1/s^2):   8.000E+05
   Max pressure iterations:            10


 Mass Fraction Transformation Matrix to Convert Species Mixtures (Columns) to Primitive Species (Rows)

                         AIR       PRODUCTS  ETHYLENE  INTERMED  PRODUCTS  NITROGEN  EHTYLENE  PILOT FU
   OXYGEN                0.230997  0.000000  0.000000  0.000000  0.000000  0.000000  0.000000  0.000000
   CARBON DIOXIDE        0.000591  0.198962  0.000000  0.000525  0.193984  0.000000  0.000000  0.000000
   WATER VAPOR           0.005941  0.086784  0.000000  0.149574  0.089703  0.000000  0.000000  0.000000
   CARBON MONOXIDE       0.000000  0.000000  0.000000  0.134614  0.000852  0.000000  0.000000  0.000000
   SOOT                  0.000000  0.000000  0.000000  0.038482  0.002948  0.000000  0.000000  0.000000
   HYDROGEN              0.000000  0.000000  0.000000  0.000000  0.000000  0.000000  0.000000  0.000000
   HYDROGEN CYANIDE      0.000000  0.000000  0.000000  0.000000  0.000000  0.000000  0.000000  0.000000
   NITROGEN              0.762470  0.714254  0.000000  0.676806  0.712513  1.000000  0.000000  0.000000
   EHTYLENE              0.000000  0.000000  0.000000  0.000000  0.000000  0.000000  1.000000  0.000000
   ETHYLENE              0.000000  0.000000  1.000000  0.000000  0.000000  0.000000  0.000000  1.000000


 Primitive Species Information

   OXYGEN
   Gas Species
   Molecular Weight (g/mol)                31.99880
   Ambient Density (kg/m^3)                1.330
           Enthalpy of Formation (J/kg)  0.000E+00

   CARBON DIOXIDE
   Gas Species
   Molecular Weight (g/mol)                44.00950
   Ambient Density (kg/m^3)                1.830
           Enthalpy of Formation (J/kg) -8.941E+06

   WATER VAPOR
   Gas Species
   Molecular Weight (g/mol)                18.01528
   Ambient Density (kg/m^3)                0.749
           Enthalpy of Formation (J/kg) -1.342E+07

   CARBON MONOXIDE
   Gas Species
   Molecular Weight (g/mol)                28.01010
   Ambient Density (kg/m^3)                1.164
           Enthalpy of Formation (J/kg) -3.946E+06

   SOOT
   Gas Species
   Molecular Weight (g/mol)                12.01070
   Ambient Density (kg/m^3)                0.499
           Enthalpy of Formation (J/kg)  0.000E+00

   HYDROGEN
   Gas Species
   Molecular Weight (g/mol)                 2.01588
   Ambient Density (kg/m^3)                0.084
           Enthalpy of Formation (J/kg)  0.000E+00

   HYDROGEN CYANIDE
   Gas Species
   Molecular Weight (g/mol)                27.02534
   Ambient Density (kg/m^3)                1.123
           Enthalpy of Formation (J/kg)  4.924E+06

   NITROGEN
   Gas Species
   Molecular Weight (g/mol)                28.01340
   Ambient Density (kg/m^3)                1.165
           Enthalpy of Formation (J/kg)  0.000E+00

   EHTYLENE
   Gas Species
   Molecular Weight (g/mol)                28.01340
   Ambient Density (kg/m^3)                1.165
   Assumed Enthalpy of Formation (J/kg)  3.097E+05

   ETHYLENE
   Gas Species
   Molecular Weight (g/mol)                28.05316
   Ambient Density (kg/m^3)                1.166
           Enthalpy of Formation (J/kg)  1.871E+06


 Tracked (Lumped) Species Information

   AIR
   Molecular Weight (g/mol)            28.75198
   Ambient Density (kg/m^3)            1.195
   Initial Mass Fraction               1.000
   Enthalpy of Formation (J/kg)     -8.504E+04

   Sub Species                    Mass Fraction     Mole Fraction
   OXYGEN                         2.309974E-01      2.075588E-01
   CARBON DIOXIDE                 5.914650E-04      3.864118E-04
   WATER VAPOR                    5.941209E-03      9.482037E-03
   NITROGEN                       7.624699E-01      7.825727E-01
 
     Viscosity (kg/m/s) Ambient,  293 K:  1.796E-05
                                  500 K:  2.612E-05
                                 1000 K:  4.125E-05
                                 1500 K:  5.371E-05
                                 2000 K:  6.476E-05
   Therm. Cond. (W/m/K) Ambient,  293 K:  2.556E-02
                                  500 K:  3.814E-02
                                 1000 K:  6.686E-02
                                 1500 K:  9.249E-02
                                 2000 K:  1.153E-01
        Enthalpy (J/kg) Ambient,  293 K: -9.012E+04
                                  500 K:  1.222E+05
                                 1000 K:  6.721E+05
                                 1500 K:  1.270E+06
                                 2000 K:  1.896E+06
    Spec. Heat (J/kg/K) Ambient,  293 K:  1.016E+03
                                  500 K:  1.042E+03
                                 1000 K:  1.156E+03
                                 1500 K:  1.229E+03
                                 2000 K:  1.270E+03
   Diff. Coeff. (m^2/s) Ambient,  293 K:  1.991E-05
                                  500 K:  4.961E-05
                                 1000 K:  1.580E-04
                                 1500 K:  3.095E-04
                                 2000 K:  4.984E-04
 Gibbs Energy Amb. (kJ/mol),  293 K: -5.873E+01
                                  500 K: -1.007E+02
                                 1000 K: -2.117E+02
                                 1500 K: -3.312E+02
                                 2000 K: -4.568E+02

   PRODUCTS
   Molecular Weight (g/mol)            28.70676
   Ambient Density (kg/m^3)            1.193
   Initial Mass Fraction               0.000
   Enthalpy of Formation (J/kg)     -2.944E+06

   Sub Species                    Mass Fraction     Mole Fraction
   CARBON DIOXIDE                 1.989619E-01      1.297800E-01
   WATER VAPOR                    8.678371E-02      1.382870E-01
   CARBON MONOXIDE                0.000000E+00      0.000000E+00
   SOOT                           0.000000E+00      0.000000E+00
   HYDROGEN CYANIDE               0.000000E+00      0.000000E+00
   NITROGEN                       7.142544E-01      7.319330E-01
 
     Viscosity (kg/m/s) Ambient,  293 K:  1.623E-05
                                  500 K:  2.403E-05
                                 1000 K:  3.903E-05
                                 1500 K:  5.145E-05
                                 2000 K:  6.239E-05
   Therm. Cond. (W/m/K) Ambient,  293 K:  2.339E-02
                                  500 K:  3.614E-02
                                 1000 K:  6.673E-02
                                 1500 K:  9.529E-02
                                 2000 K:  1.208E-01
        Enthalpy (J/kg) Ambient,  293 K: -2.949E+06
                                  500 K: -2.722E+06
                                 1000 K: -2.120E+06
                                 1500 K: -1.454E+06
                                 2000 K: -7.474E+05
    Spec. Heat (J/kg/K) Ambient,  293 K:  1.071E+03
                                  500 K:  1.126E+03
                                 1000 K:  1.278E+03
                                 1500 K:  1.380E+03
                                 2000 K:  1.439E+03
   Diff. Coeff. (m^2/s) Ambient,  293 K:  1.940E-05
                                  500 K:  4.914E-05
                                 1000 K:  1.584E-04
                                 1500 K:  3.114E-04
                                 2000 K:  5.021E-04
 Gibbs Energy Amb. (kJ/mol),  293 K: -1.566E+02
                                  500 K: -1.990E+02
                                 1000 K: -3.118E+02
                                 1500 K: -4.344E+02
                                 2000 K: -5.638E+02

   ETHYLENE
   Molecular Weight (g/mol)            28.05316
   Ambient Density (kg/m^3)            1.166
   Initial Mass Fraction               0.000
   Enthalpy of Formation (J/kg)      1.871E+06

   Sub Species                    Mass Fraction     Mole Fraction
   ETHYLENE                       1.000000E+00      1.000000E+00
 
     Viscosity (kg/m/s) Ambient,  293 K:  9.987E-06
                                  500 K:  1.608E-05
                                 1000 K:  2.724E-05
                                 1500 K:  3.595E-05
                                 2000 K:  4.345E-05
   Therm. Cond. (W/m/K) Ambient,  293 K:  1.819E-02
                                  500 K:  4.313E-02
                                 1000 K:  1.099E-01
                                 1500 K:  1.699E-01
                                 2000 K:  2.210E-01
        Enthalpy (J/kg) Ambient,  293 K:  1.864E+06
                                  500 K:  2.252E+06
                                 1000 K:  3.678E+06
                                 1500 K:  5.511E+06
                                 2000 K:  7.554E+06
    Spec. Heat (J/kg/K) Ambient,  293 K:  1.511E+03
                                  500 K:  2.227E+03
                                 1000 K:  3.348E+03
                                 1500 K:  3.922E+03
                                 2000 K:  4.221E+03
   Diff. Coeff. (m^2/s) Ambient,  293 K:  1.552E-05
                                  500 K:  3.994E-05
                                 1000 K:  1.298E-04
                                 1500 K:  2.553E-04
                                 2000 K:  4.114E-04
 Gibbs Energy Amb. (kJ/mol),  293 K: -1.176E+01
                                  500 K: -5.994E+01
                                 1000 K: -1.972E+02
                                 1500 K: -3.582E+02
                                 2000 K: -5.377E+02

   INTERMEDIATE PRODUCTS 2
   Molecular Weight (g/mol)            24.70084
   Ambient Density (kg/m^3)            1.027
   Initial Mass Fraction               0.000
   Enthalpy of Formation (J/kg)     -2.544E+06

   Sub Species                    Mass Fraction     Mole Fraction
   CARBON DIOXIDE                 5.250134E-04      2.946698E-04
   WATER VAPOR                    1.495735E-01      2.050810E-01
   CARBON MONOXIDE                1.346141E-01      1.187101E-01
   SOOT                           3.848159E-02      7.914008E-02
   HYDROGEN                       0.000000E+00      0.000000E+00
   HYDROGEN CYANIDE               0.000000E+00      0.000000E+00
   NITROGEN                       6.768058E-01      5.967741E-01
 
     Viscosity (kg/m/s) Ambient,  293 K:  1.585E-05
                                  500 K:  2.337E-05
                                 1000 K:  3.818E-05
                                 1500 K:  5.064E-05
                                 2000 K:  6.163E-05
   Therm. Cond. (W/m/K) Ambient,  293 K:  2.355E-02
                                  500 K:  3.633E-02
                                 1000 K:  6.804E-02
                                 1500 K:  9.850E-02
                                 2000 K:  1.261E-01
        Enthalpy (J/kg) Ambient,  293 K: -2.549E+06
                                  500 K: -2.307E+06
                                 1000 K: -1.667E+06
                                 1500 K: -9.537E+05
                                 2000 K: -1.934E+05
    Spec. Heat (J/kg/K) Ambient,  293 K:  1.149E+03
                                  500 K:  1.198E+03
                                 1000 K:  1.362E+03
                                 1500 K:  1.481E+03
                                 2000 K:  1.554E+03
   Diff. Coeff. (m^2/s) Ambient,  293 K:  2.054E-05
                                  500 K:  5.223E-05
                                 1000 K:  1.689E-04
                                 1500 K:  3.324E-04
                                 2000 K:  5.363E-04
 Gibbs Energy Amb. (kJ/mol),  293 K: -1.054E+02
                                  500 K: -1.453E+02
                                 1000 K: -2.513E+02
                                 1500 K: -3.660E+02
                                 2000 K: -4.869E+02

   PRODUCTS 2
   Molecular Weight (g/mol)            28.49193
   Ambient Density (kg/m^3)            1.184
   Initial Mass Fraction               0.000
   Enthalpy of Formation (J/kg)     -2.942E+06

   Sub Species                    Mass Fraction     Mole Fraction
   CARBON DIOXIDE                 1.939836E-01      1.255857E-01
   WATER VAPOR                    8.970302E-02      1.418691E-01
   CARBON MONOXIDE                8.517532E-04      8.664051E-04
   SOOT                           2.948377E-03      6.994175E-03
   HYDROGEN CYANIDE               0.000000E+00      0.000000E+00
   NITROGEN                       7.125133E-01      7.246846E-01
 
     Viscosity (kg/m/s) Ambient,  293 K:  1.619E-05
                                  500 K:  2.397E-05
                                 1000 K:  3.895E-05
                                 1500 K:  5.137E-05
                                 2000 K:  6.231E-05
   Therm. Cond. (W/m/K) Ambient,  293 K:  2.335E-02
                                  500 K:  3.612E-02
                                 1000 K:  6.679E-02
                                 1500 K:  9.546E-02
                                 2000 K:  1.211E-01
        Enthalpy (J/kg) Ambient,  293 K: -2.947E+06
                                  500 K: -2.720E+06
                                 1000 K: -2.116E+06
                                 1500 K: -1.446E+06
                                 2000 K: -7.370E+05
    Spec. Heat (J/kg/K) Ambient,  293 K:  1.073E+03
                                  500 K:  1.129E+03
                                 1000 K:  1.283E+03
                                 1500 K:  1.386E+03
                                 2000 K:  1.446E+03
   Diff. Coeff. (m^2/s) Ambient,  293 K:  1.947E-05
                                  500 K:  4.932E-05
                                 1000 K:  1.590E-04
                                 1500 K:  3.126E-04
                                 2000 K:  5.041E-04
 Gibbs Energy Amb. (kJ/mol),  293 K: -1.553E+02
                                  500 K: -1.975E+02
                                 1000 K: -3.099E+02
                                 1500 K: -4.321E+02
                                 2000 K: -5.611E+02

   NITROGEN
   Molecular Weight (g/mol)            28.01340
   Ambient Density (kg/m^3)            1.165
   Initial Mass Fraction               0.000
   Enthalpy of Formation (J/kg)      0.000E+00

   Sub Species                    Mass Fraction     Mole Fraction
   NITROGEN                       1.000000E+00      1.000000E+00
 
     Viscosity (kg/m/s) Ambient,  293 K:  1.740E-05
                                  500 K:  2.512E-05
                                 1000 K:  3.948E-05
                                 1500 K:  5.136E-05
                                 2000 K:  6.190E-05
   Therm. Cond. (W/m/K) Ambient,  293 K:  2.547E-02
                                  500 K:  3.736E-02
                                 1000 K:  6.491E-02
                                 1500 K:  8.998E-02
                                 2000 K:  1.120E-01
        Enthalpy (J/kg) Ambient,  293 K: -5.199E+03
                                  500 K:  2.110E+05
                                 1000 K:  7.661E+05
                                 1500 K:  1.371E+06
                                 2000 K:  2.004E+06
    Spec. Heat (J/kg/K) Ambient,  293 K:  1.040E+03
                                  500 K:  1.056E+03
                                 1000 K:  1.167E+03
                                 1500 K:  1.244E+03
                                 2000 K:  1.284E+03
   Diff. Coeff. (m^2/s) Ambient,  293 K:  1.986E-05
                                  500 K:  4.934E-05
                                 1000 K:  1.568E-04
                                 1500 K:  3.070E-04
                                 2000 K:  4.944E-04
 Gibbs Energy Amb. (kJ/mol),  293 K: -5.614E+01
                                  500 K: -9.746E+01
                                 1000 K: -2.067E+02
                                 1500 K: -3.244E+02
                                 2000 K: -4.480E+02

   EHTYLENE
   Molecular Weight (g/mol)            28.01340
   Ambient Density (kg/m^3)            1.165
   Initial Mass Fraction               0.000
   Enthalpy of Formation (J/kg)      3.097E+05

   Sub Species                    Mass Fraction     Mole Fraction
   EHTYLENE                       1.000000E+00      1.000000E+00
 
     Viscosity (kg/m/s) Ambient,  293 K:  1.740E-05
                                  500 K:  2.512E-05
                                 1000 K:  3.948E-05
                                 1500 K:  5.136E-05
                                 2000 K:  6.190E-05
   Therm. Cond. (W/m/K) Ambient,  293 K:  2.545E-02
                                  500 K:  3.675E-02
                                 1000 K:  5.777E-02
                                 1500 K:  7.515E-02
                                 2000 K:  9.057E-02
        Enthalpy (J/kg) Ambient,  293 K:  3.045E+05
                                  500 K:  5.194E+05
                                 1000 K:  1.039E+06
                                 1500 K:  1.558E+06
                                 2000 K:  2.078E+06
    Spec. Heat (J/kg/K) Ambient,  293 K:  1.039E+03
                                  500 K:  1.039E+03
                                 1000 K:  1.039E+03
                                 1500 K:  1.039E+03
                                 2000 K:  1.039E+03
   Diff. Coeff. (m^2/s) Ambient,  293 K:  1.986E-05
                                  500 K:  4.934E-05
                                 1000 K:  1.568E-04
                                 1500 K:  3.070E-04
                                 2000 K:  4.944E-04

   PILOT FUEL
   Molecular Weight (g/mol)            28.05316
   Ambient Density (kg/m^3)            1.166
   Initial Mass Fraction               0.000
   Enthalpy of Formation (J/kg)      1.871E+06

   Sub Species                    Mass Fraction     Mole Fraction
   ETHYLENE                       1.000000E+00      1.000000E+00
 
     Viscosity (kg/m/s) Ambient,  293 K:  9.987E-06
                                  500 K:  1.608E-05
                                 1000 K:  2.724E-05
                                 1500 K:  3.595E-05
                                 2000 K:  4.345E-05
   Therm. Cond. (W/m/K) Ambient,  293 K:  1.819E-02
                                  500 K:  4.313E-02
                                 1000 K:  1.099E-01
                                 1500 K:  1.699E-01
                                 2000 K:  2.210E-01
        Enthalpy (J/kg) Ambient,  293 K:  1.864E+06
                                  500 K:  2.252E+06
                                 1000 K:  3.678E+06
                                 1500 K:  5.511E+06
                                 2000 K:  7.554E+06
    Spec. Heat (J/kg/K) Ambient,  293 K:  1.511E+03
                                  500 K:  2.227E+03
                                 1000 K:  3.348E+03
                                 1500 K:  3.922E+03
                                 2000 K:  4.221E+03
   Diff. Coeff. (m^2/s) Ambient,  293 K:  1.552E-05
                                  500 K:  3.994E-05
                                 1000 K:  1.298E-04
                                 1500 K:  2.553E-04
                                 2000 K:  4.114E-04
 Gibbs Energy Amb. (kJ/mol),  293 K: -1.176E+01
                                  500 K: -5.994E+01
                                 1000 K: -1.972E+02
                                 1500 K: -3.582E+02
                                 2000 K: -5.377E+02


 Gas Phase Reaction Information

   Reaction 1

      Priority:                                                               1

      Fuel                                           Heat of Combustion (kJ/kg)
      PILOT FUEL                                                     47166.5937

      Primitive Species Stoich. Coeff.
      Species ID                                                          Molar
      OXYGEN                                                          -3.000000
      CARBON DIOXIDE                                                   2.000000
      WATER VAPOR                                                      2.000000
      ETHYLENE                                                        -1.000000

      Tracked (Lumped) Species Stoich. Coeff.
      Species ID                                             Molar         Mass
      AIR                                               -14.453734   -14.813786
      PRODUCTS                                           15.453734    15.813786
      PILOT FUEL                                         -1.000000    -1.000000

      Reaction Kinetics

      Fast chemistry

      ODE Solver:  EXPLICIT EULER

      Extinction Model:  EXTINCTION 2
      Auto-Ignition Temperature (C):            -273.0
      Critical Flame Temperature (C):           1427.0

      Prescribed Radiative Fraction:             0.000

   Reaction 2

      Priority:                                                               1

      Fuel                                           Heat of Combustion (kJ/kg)
      ETHYLENE                                                       23840.2460
      2-step reaction,  Total Heat of Combustion                     45560.9121

      Primitive Species Stoich. Coeff.
      Species ID                                                          Molar
      OXYGEN                                                          -1.600000
      WATER VAPOR                                                      2.000000
      CARBON MONOXIDE                                                  1.200000
      SOOT                                                             0.800000
      ETHYLENE                                                        -1.000000

      Tracked (Lumped) Species Stoich. Coeff.
      Species ID                                             Molar         Mass
      AIR                                                -7.708658    -7.900686
      ETHYLENE                                           -1.000000    -1.000000
      INTERMEDIATE PRODUCTS 2                            10.108658     8.900686

      Reaction Kinetics

      Fast chemistry

      ODE Solver:  EXPLICIT EULER

      Extinction Model:  EXTINCTION 2
      Auto-Ignition Temperature (C):             450.0
      Critical Flame Temperature (C):           1337.0

      Prescribed Radiative Fraction:             0.000

   Reaction 3

      Priority:                                                               2

      Fuel                                           Heat of Combustion (kJ/kg)
      INTERMEDIATE PRODUCTS 2                                         2440.3362

      Primitive Species Stoich. Coeff.
      Species ID                                                          Molar
      OXYGEN                                                          -0.127454
      CARBON DIOXIDE                                                   0.186165
      CARBON MONOXIDE                                                 -0.117422
      SOOT                                                            -0.068742

      Tracked (Lumped) Species Stoich. Coeff.
      Species ID                                             Molar         Mass
      AIR                                                -0.614060    -0.714771
      INTERMEDIATE PRODUCTS 2                            -1.000000    -1.000000
      PRODUCTS 2                                          1.486606     1.714771

      Reaction Kinetics

      Fast chemistry

      ODE Solver:  EXPLICIT EULER

      Prescribed Radiative Fraction:             0.000


 Material Information

   1 sand
     Emissivity:                                  0.900
     Density (kg/m3):                            1500.0
     Specific Heat (kJ/kg/K) Ambient,  293 K:  8.300E-01
                                       350 K:  8.300E-01
                                       500 K:  8.300E-01
                                       800 K:  8.300E-01
     Therm. Cond. (W/m/K) Ambient,     293 K:  2.500E-01
                                       350 K:  2.500E-01
                                       500 K:  2.500E-01
                                       800 K:  2.500E-01
     Enthalpy (kJ/kg) Ambient,         293 K:  2.432E+02
                                       350 K:  2.905E+02
                                       500 K:  4.150E+02
                                       800 K:  6.640E+02


 Surface Conditions

   0 INERT

   1 side wall (DEFAULT)

   2 wall

   3 burner
     Material List
          1  sand
     Layer  1
        Thickness   (m):  0.02540
        Density (kg/m3):  1500.00
        sand, Mass fraction:    1.00
     Reaction products considered from the first  0.50 layers.
     Total surface density    38.100 kg/m2
     Solid Phase Node, Layer, Coordinates(m):
                    0      1       0.0000000
                    1      1       0.0004097
                    2      1       0.0012290
                    3      1       0.0028677
                    4      1       0.0061452
                    5      1       0.0127000
                    6      1       0.0192548
                    7      1       0.0225323
                    8      1       0.0241710
                    9      1       0.0249903
                   10      1       0.0254000
     Exposed Backing
     ETHYLENE Mass Flux (kg/s/m2)   1.211E-02

   4 coflow
     AIR Mass Flux (kg/s/m2)   2.230E-01
     NITROGEN Mass Flux (kg/s/m2)   3.600E-01

   5 pilot
     PILOT FUEL Mass Flux (kg/s/m2)   2.197E-03
     Convection length scale (m)  9.400E-03

   6 OPEN
     Passive Vent to Atmosphere

   7 MIRROR
     Symmetry Plane

   8 INTERPOLATED

   9 PERIODIC

  10 HVAC

  11 MASSLESS TRACER

  12 DROPLET

  13 MASSLESS TARGET

  14 PERIODIC FLOW ONLY


 Lagrangian Particle Classes

   1 ignitor
     SURFace ID: pilot
     # Reals: 93
     # Integers: 24
     # Logicals: 5


 Cut-off Density and Temperature

    Minimum Temperature:  -259.1 C
    Maximum Temperature:  2726.8 C
    Minimum Density:  1.195E-01 kg/m3
    Maximum Density:  5.006E+01 kg/m3


 Device Information

   1 ID: XO2
     QUANTITY: VOLUME FRACTION
     Species ID: OXYGEN
     Coordinates (X,Y,Z):    1.520000E-01   -5.000000E-05   -1.490000E-01
     TEMPORAL STATISTIC: INSTANT VALUE


 Radiation Model Information

   Number of control angles  104
   Time step increment         3
   Angle increment             5
   Theta band N_phi   Solid angle
     1:        4     0.120
     2:       12     0.114
     3:       16     0.127
     4:       20     0.120
     5:       20     0.120
     6:       16     0.127
     7:       12     0.114
     8:        4     0.120
   Using gray gas absorption.
   Mean beam length  1.000E-01 m
 
 

 Run Time Diagnostics

 Time Step:      1, Simulation Time:    0.0060 s, Step Size: 0.00595 s, Pressure Iterations: 10
 Time Step:      2, Simulation Time:     0.012 s, Step Size: 0.00595 s, Pressure Iterations: 10
 Time Step:      3, Simulation Time:     0.018 s, Step Size: 0.00595 s, Pressure Iterations: 10
 Time Step:      4, Simulation Time:     0.024 s, Step Size: 0.00595 s, Pressure Iterations: 10
 Time Step:      5, Simulation Time:     0.030 s, Step Size: 0.00595 s, Pressure Iterations: 10
 Time Step:      6, Simulation Time:     0.034 s, Step Size: 0.00447 s, Pressure Iterations: 10
 Time Step:      7, Simulation Time:     0.039 s, Step Size: 0.00447 s, Pressure Iterations: 10
 Time Step:      8, Simulation Time:     0.043 s, Step Size: 0.00447 s, Pressure Iterations: 10
 Time Step:      9, Simulation Time:     0.048 s, Step Size: 0.00447 s, Pressure Iterations: 10
 Time Step:     10, Simulation Time:     0.052 s, Step Size: 0.00447 s, Pressure Iterations: 10
 Time Step:     20, Simulation Time:     0.093 s, Step Size: 0.00402 s, Pressure Iterations: 10
 Time Step:     30, Simulation Time:      0.14 s, Step Size: 0.00289 s, Pressure Iterations: 10
 Time Step:     40, Simulation Time:      0.16 s, Step Size: 0.00135 s, Pressure Iterations: 10
 Time Step:     50, Simulation Time:      0.17 s, Step Size: 0.00135 s, Pressure Iterations: 10
 Time Step:     60, Simulation Time:      0.19 s, Step Size: 0.00218 s, Pressure Iterations: 10
 Time Step:     70, Simulation Time:      0.21 s, Step Size: 0.00218 s, Pressure Iterations: 10
 Time Step:     80, Simulation Time:      0.23 s, Step Size: 0.00220 s, Pressure Iterations: 10
 Time Step:     90, Simulation Time:      0.25 s, Step Size: 0.00242 s, Pressure Iterations: 10
 Time Step:    100, Simulation Time:      0.28 s, Step Size: 0.00266 s, Pressure Iterations: 10
 Time Step:    200, Simulation Time:      0.39 s, Step Size: 0.00089 s, Pressure Iterations: 10
 Time Step:    300, Simulation Time:      0.47 s, Step Size: 0.00088 s, Pressure Iterations: 10
 Time Step:    400, Simulation Time:      0.56 s, Step Size: 0.00068 s, Pressure Iterations: 10
 Time Step:    500, Simulation Time:      0.62 s, Step Size: 0.00058 s, Pressure Iterations: 10
 Time Step:    600, Simulation Time:      0.68 s, Step Size: 0.00058 s, Pressure Iterations: 10
 Time Step:    700, Simulation Time:      0.74 s, Step Size: 0.00055 s, Pressure Iterations: 10
 Time Step:    800, Simulation Time:      0.79 s, Step Size: 0.00049 s, Pressure Iterations: 10
 Time Step:    900, Simulation Time:      0.84 s, Step Size: 0.00053 s, Pressure Iterations: 10
 Time Step:   1000, Simulation Time:      0.89 s, Step Size: 0.00043 s, Pressure Iterations: 10
 Time Step:   1100, Simulation Time:      0.94 s, Step Size: 0.00051 s, Pressure Iterations: 9
 Time Step:   1200, Simulation Time:      0.98 s, Step Size: 0.00046 s, Pressure Iterations: 8
 Time Step:   1300, Simulation Time:      1.03 s, Step Size: 0.00044 s, Pressure Iterations: 9
 Time Step:   1400, Simulation Time:      1.07 s, Step Size: 0.00046 s, Pressure Iterations: 10
 Time Step:   1500, Simulation Time:      1.12 s, Step Size: 0.00050 s, Pressure Iterations: 10
 Time Step:   1600, Simulation Time:      1.16 s, Step Size: 0.00035 s, Pressure Iterations: 9
 Time Step:   1700, Simulation Time:      1.21 s, Step Size: 0.00042 s, Pressure Iterations: 9
 Time Step:   1800, Simulation Time:      1.25 s, Step Size: 0.00038 s, Pressure Iterations: 9
 Time Step:   1900, Simulation Time:      1.29 s, Step Size: 0.00040 s, Pressure Iterations: 8
 Time Step:   2000, Simulation Time:      1.33 s, Step Size: 0.00044 s, Pressure Iterations: 9
 Time Step:   2100, Simulation Time:      1.37 s, Step Size: 0.00034 s, Pressure Iterations: 9
 Time Step:   2200, Simulation Time:      1.41 s, Step Size: 0.00040 s, Pressure Iterations: 9
 Time Step:   2300, Simulation Time:      1.45 s, Step Size: 0.00040 s, Pressure Iterations: 10
 Time Step:   2400, Simulation Time:      1.48 s, Step Size: 0.00038 s, Pressure Iterations: 7
 Time Step:   2500, Simulation Time:      1.52 s, Step Size: 0.00037 s, Pressure Iterations: 8
 Time Step:   2600, Simulation Time:      1.56 s, Step Size: 0.00041 s, Pressure Iterations: 10
 Time Step:   2700, Simulation Time:      1.60 s, Step Size: 0.00041 s, Pressure Iterations: 9
 Time Step:   2800, Simulation Time:      1.64 s, Step Size: 0.00039 s, Pressure Iterations: 8
 Time Step:   2900, Simulation Time:      1.68 s, Step Size: 0.00039 s, Pressure Iterations: 8
 Time Step:   3000, Simulation Time:      1.72 s, Step Size: 0.00039 s, Pressure Iterations: 9
 Time Step:   3100, Simulation Time:      1.76 s, Step Size: 0.00041 s, Pressure Iterations: 8
 Time Step:   3200, Simulation Time:      1.80 s, Step Size: 0.00036 s, Pressure Iterations: 9
 Time Step:   3300, Simulation Time:      1.83 s, Step Size: 0.00036 s, Pressure Iterations: 8
 Time Step:   3400, Simulation Time:      1.87 s, Step Size: 0.00035 s, Pressure Iterations: 8
 Time Step:   3500, Simulation Time:      1.91 s, Step Size: 0.00037 s, Pressure Iterations: 9
 Time Step:   3600, Simulation Time:      1.94 s, Step Size: 0.00035 s, Pressure Iterations: 10
 Time Step:   3700, Simulation Time:      1.98 s, Step Size: 0.00041 s, Pressure Iterations: 9
 Time Step:   3800, Simulation Time:      2.02 s, Step Size: 0.00039 s, Pressure Iterations: 10
 Time Step:   3900, Simulation Time:      2.06 s, Step Size: 0.00039 s, Pressure Iterations: 9
 Time Step:   4000, Simulation Time:      2.09 s, Step Size: 0.00039 s, Pressure Iterations: 9
 Time Step:   4100, Simulation Time:      2.13 s, Step Size: 0.00034 s, Pressure Iterations: 9
 Time Step:   4200, Simulation Time:      2.17 s, Step Size: 0.00037 s, Pressure Iterations: 9
 Time Step:   4300, Simulation Time:      2.20 s, Step Size: 0.00035 s, Pressure Iterations: 9
 Time Step:   4400, Simulation Time:      2.23 s, Step Size: 0.00034 s, Pressure Iterations: 10
 Time Step:   4500, Simulation Time:      2.27 s, Step Size: 0.00036 s, Pressure Iterations: 9
 Time Step:   4600, Simulation Time:      2.31 s, Step Size: 0.00038 s, Pressure Iterations: 8
 Time Step:   4700, Simulation Time:      2.35 s, Step Size: 0.00042 s, Pressure Iterations: 10
 Time Step:   4800, Simulation Time:      2.39 s, Step Size: 0.00037 s, Pressure Iterations: 9
 Time Step:   4900, Simulation Time:      2.43 s, Step Size: 0.00037 s, Pressure Iterations: 10
 Time Step:   5000, Simulation Time:      2.47 s, Step Size: 0.00037 s, Pressure Iterations: 9
 Time Step:   5100, Simulation Time:      2.50 s, Step Size: 0.00037 s, Pressure Iterations: 8
 Time Step:   5200, Simulation Time:      2.54 s, Step Size: 0.00036 s, Pressure Iterations: 7
 Time Step:   5300, Simulation Time:      2.58 s, Step Size: 0.00040 s, Pressure Iterations: 8
 Time Step:   5400, Simulation Time:      2.61 s, Step Size: 0.00036 s, Pressure Iterations: 8
 Time Step:   5500, Simulation Time:      2.65 s, Step Size: 0.00031 s, Pressure Iterations: 8
 Time Step:   5600, Simulation Time:      2.69 s, Step Size: 0.00042 s, Pressure Iterations: 10
 Time Step:   5700, Simulation Time:      2.72 s, Step Size: 0.00036 s, Pressure Iterations: 9
 Time Step:   5800, Simulation Time:      2.76 s, Step Size: 0.00038 s, Pressure Iterations: 10
 Time Step:   5900, Simulation Time:      2.80 s, Step Size: 0.00040 s, Pressure Iterations: 9
 Time Step:   6000, Simulation Time:      2.84 s, Step Size: 0.00032 s, Pressure Iterations: 7
 Time Step:   6100, Simulation Time:      2.87 s, Step Size: 0.00038 s, Pressure Iterations: 10
 Time Step:   6200, Simulation Time:      2.91 s, Step Size: 0.00038 s, Pressure Iterations: 10
 Time Step:   6300, Simulation Time:      2.95 s, Step Size: 0.00038 s, Pressure Iterations: 8
 Time Step:   6400, Simulation Time:      2.99 s, Step Size: 0.00042 s, Pressure Iterations: 8
 Time Step:   6500, Simulation Time:      3.03 s, Step Size: 0.00040 s, Pressure Iterations: 8
 Time Step:   6600, Simulation Time:      3.07 s, Step Size: 0.00035 s, Pressure Iterations: 8
 Time Step:   6700, Simulation Time:      3.10 s, Step Size: 0.00035 s, Pressure Iterations: 7
 Time Step:   6800, Simulation Time:      3.14 s, Step Size: 0.00040 s, Pressure Iterations: 8
 Time Step:   6900, Simulation Time:      3.18 s, Step Size: 0.00039 s, Pressure Iterations: 9
 Time Step:   7000, Simulation Time:      3.22 s, Step Size: 0.00039 s, Pressure Iterations: 10
 Time Step:   7100, Simulation Time:      3.26 s, Step Size: 0.00038 s, Pressure Iterations: 8
 Time Step:   7200, Simulation Time:      3.30 s, Step Size: 0.00042 s, Pressure Iterations: 10
 Time Step:   7300, Simulation Time:      3.33 s, Step Size: 0.00037 s, Pressure Iterations: 10
 Time Step:   7400, Simulation Time:      3.37 s, Step Size: 0.00037 s, Pressure Iterations: 8
 Time Step:   7500, Simulation Time:      3.41 s, Step Size: 0.00040 s, Pressure Iterations: 9
 Time Step:   7600, Simulation Time:      3.45 s, Step Size: 0.00039 s, Pressure Iterations: 9
 Time Step:   7700, Simulation Time:      3.49 s, Step Size: 0.00039 s, Pressure Iterations: 8
 Time Step:   7800, Simulation Time:      3.53 s, Step Size: 0.00038 s, Pressure Iterations: 8
 Time Step:   7900, Simulation Time:      3.57 s, Step Size: 0.00038 s, Pressure Iterations: 8
 Time Step:   8000, Simulation Time:      3.61 s, Step Size: 0.00037 s, Pressure Iterations: 10
 Time Step:   8100, Simulation Time:      3.65 s, Step Size: 0.00036 s, Pressure Iterations: 8
 Time Step:   8200, Simulation Time:      3.69 s, Step Size: 0.00039 s, Pressure Iterations: 8
 Time Step:   8300, Simulation Time:      3.73 s, Step Size: 0.00043 s, Pressure Iterations: 8
 Time Step:   8400, Simulation Time:      3.77 s, Step Size: 0.00039 s, Pressure Iterations: 10
 Time Step:   8500, Simulation Time:      3.80 s, Step Size: 0.00033 s, Pressure Iterations: 9
 Time Step:   8600, Simulation Time:      3.84 s, Step Size: 0.00040 s, Pressure Iterations: 9
 Time Step:   8700, Simulation Time:      3.88 s, Step Size: 0.00036 s, Pressure Iterations: 8
 Time Step:   8800, Simulation Time:      3.92 s, Step Size: 0.00040 s, Pressure Iterations: 10
 Time Step:   8900, Simulation Time:      3.95 s, Step Size: 0.00039 s, Pressure Iterations: 9
 Time Step:   9000, Simulation Time:      3.99 s, Step Size: 0.00038 s, Pressure Iterations: 7
 Time Step:   9100, Simulation Time:      4.03 s, Step Size: 0.00037 s, Pressure Iterations: 10
 Time Step:   9200, Simulation Time:      4.07 s, Step Size: 0.00037 s, Pressure Iterations: 10
 Time Step:   9300, Simulation Time:      4.10 s, Step Size: 0.00033 s, Pressure Iterations: 7
 Time Step:   9400, Simulation Time:      4.14 s, Step Size: 0.00040 s, Pressure Iterations: 8
 Time Step:   9500, Simulation Time:      4.18 s, Step Size: 0.00039 s, Pressure Iterations: 9
 Time Step:   9600, Simulation Time:      4.22 s, Step Size: 0.00039 s, Pressure Iterations: 10
 Time Step:   9700, Simulation Time:      4.25 s, Step Size: 0.00035 s, Pressure Iterations: 8
 Time Step:   9800, Simulation Time:      4.29 s, Step Size: 0.00038 s, Pressure Iterations: 10
 Time Step:   9900, Simulation Time:      4.33 s, Step Size: 0.00039 s, Pressure Iterations: 10
 Time Step:  10000, Simulation Time:      4.36 s, Step Size: 0.00035 s, Pressure Iterations: 8
 Time Step:  10100, Simulation Time:      4.40 s, Step Size: 0.00037 s, Pressure Iterations: 9
 Time Step:  10200, Simulation Time:      4.44 s, Step Size: 0.00041 s, Pressure Iterations: 10
 Time Step:  10300, Simulation Time:      4.48 s, Step Size: 0.00040 s, Pressure Iterations: 9
 Time Step:  10400, Simulation Time:      4.52 s, Step Size: 0.00036 s, Pressure Iterations: 8
 Time Step:  10500, Simulation Time:      4.55 s, Step Size: 0.00038 s, Pressure Iterations: 9
 Time Step:  10600, Simulation Time:      4.60 s, Step Size: 0.00037 s, Pressure Iterations: 8
 Time Step:  10700, Simulation Time:      4.63 s, Step Size: 0.00041 s, Pressure Iterations: 8
 Time Step:  10800, Simulation Time:      4.67 s, Step Size: 0.00040 s, Pressure Iterations: 9
 Time Step:  10900, Simulation Time:      4.71 s, Step Size: 0.00040 s, Pressure Iterations: 7
 Time Step:  11000, Simulation Time:      4.75 s, Step Size: 0.00040 s, Pressure Iterations: 9
 Time Step:  11100, Simulation Time:      4.79 s, Step Size: 0.00036 s, Pressure Iterations: 8
 Time Step:  11200, Simulation Time:      4.83 s, Step Size: 0.00035 s, Pressure Iterations: 9
 Time Step:  11300, Simulation Time:      4.87 s, Step Size: 0.00039 s, Pressure Iterations: 9
 Time Step:  11400, Simulation Time:      4.91 s, Step Size: 0.00043 s, Pressure Iterations: 10
 Time Step:  11500, Simulation Time:      4.95 s, Step Size: 0.00038 s, Pressure Iterations: 10
 Time Step:  11600, Simulation Time:      4.99 s, Step Size: 0.00041 s, Pressure Iterations: 10
 Time Step:  11700, Simulation Time:      5.03 s, Step Size: 0.00041 s, Pressure Iterations: 9
 Time Step:  11800, Simulation Time:      5.07 s, Step Size: 0.00035 s, Pressure Iterations: 9
 Time Step:  11900, Simulation Time:      5.11 s, Step Size: 0.00043 s, Pressure Iterations: 8
 Time Step:  12000, Simulation Time:      5.15 s, Step Size: 0.00038 s, Pressure Iterations: 10
 Time Step:  12100, Simulation Time:      5.18 s, Step Size: 0.00038 s, Pressure Iterations: 8
 Time Step:  12200, Simulation Time:      5.22 s, Step Size: 0.00033 s, Pressure Iterations: 10
 Time Step:  12300, Simulation Time:      5.25 s, Step Size: 0.00037 s, Pressure Iterations: 9
 Time Step:  12400, Simulation Time:      5.29 s, Step Size: 0.00035 s, Pressure Iterations: 8
 Time Step:  12500, Simulation Time:      5.33 s, Step Size: 0.00042 s, Pressure Iterations: 10
 Time Step:  12600, Simulation Time:      5.37 s, Step Size: 0.00041 s, Pressure Iterations: 10
 Time Step:  12700, Simulation Time:      5.42 s, Step Size: 0.00037 s, Pressure Iterations: 9
 Time Step:  12800, Simulation Time:      5.45 s, Step Size: 0.00036 s, Pressure Iterations: 9
 Time Step:  12900, Simulation Time:      5.49 s, Step Size: 0.00040 s, Pressure Iterations: 8
 Time Step:  13000, Simulation Time:      5.53 s, Step Size: 0.00040 s, Pressure Iterations: 8
 Time Step:  13100, Simulation Time:      5.57 s, Step Size: 0.00044 s, Pressure Iterations: 10
 Time Step:  13200, Simulation Time:      5.61 s, Step Size: 0.00038 s, Pressure Iterations: 10
 Time Step:  13300, Simulation Time:      5.65 s, Step Size: 0.00033 s, Pressure Iterations: 8
 Time Step:  13400, Simulation Time:      5.69 s, Step Size: 0.00036 s, Pressure Iterations: 9
 Time Step:  13500, Simulation Time:      5.72 s, Step Size: 0.00036 s, Pressure Iterations: 10
 Time Step:  13600, Simulation Time:      5.76 s, Step Size: 0.00036 s, Pressure Iterations: 9
 Time Step:  13700, Simulation Time:      5.80 s, Step Size: 0.00039 s, Pressure Iterations: 8
 Time Step:  13800, Simulation Time:      5.84 s, Step Size: 0.00043 s, Pressure Iterations: 10
 Time Step:  13900, Simulation Time:      5.88 s, Step Size: 0.00039 s, Pressure Iterations: 8
 Time Step:  14000, Simulation Time:      5.92 s, Step Size: 0.00039 s, Pressure Iterations: 10
 Time Step:  14100, Simulation Time:      5.96 s, Step Size: 0.00038 s, Pressure Iterations: 8
 Time Step:  14200, Simulation Time:      6.00 s, Step Size: 0.00041 s, Pressure Iterations: 10
 Time Step:  14300, Simulation Time:      6.04 s, Step Size: 0.00043 s, Pressure Iterations: 9
 Time Step:  14400, Simulation Time:      6.08 s, Step Size: 0.00043 s, Pressure Iterations: 10
 Time Step:  14500, Simulation Time:      6.12 s, Step Size: 0.00034 s, Pressure Iterations: 10
 Time Step:  14600, Simulation Time:      6.15 s, Step Size: 0.00037 s, Pressure Iterations: 9
 Time Step:  14700, Simulation Time:      6.19 s, Step Size: 0.00037 s, Pressure Iterations: 9
 Time Step:  14800, Simulation Time:      6.23 s, Step Size: 0.00040 s, Pressure Iterations: 8
 Time Step:  14900, Simulation Time:      6.27 s, Step Size: 0.00044 s, Pressure Iterations: 9
 Time Step:  15000, Simulation Time:      6.31 s, Step Size: 0.00039 s, Pressure Iterations: 9
 Time Step:  15100, Simulation Time:      6.35 s, Step Size: 0.00039 s, Pressure Iterations: 10
 Time Step:  15200, Simulation Time:      6.39 s, Step Size: 0.00038 s, Pressure Iterations: 10
 Time Step:  15300, Simulation Time:      6.43 s, Step Size: 0.00038 s, Pressure Iterations: 10
 Time Step:  15400, Simulation Time:      6.47 s, Step Size: 0.00041 s, Pressure Iterations: 9
 Time Step:  15500, Simulation Time:      6.51 s, Step Size: 0.00037 s, Pressure Iterations: 8
 Time Step:  15600, Simulation Time:      6.54 s, Step Size: 0.00037 s, Pressure Iterations: 10
 Time Step:  15700, Simulation Time:      6.58 s, Step Size: 0.00037 s, Pressure Iterations: 9
 Time Step:  15800, Simulation Time:      6.62 s, Step Size: 0.00036 s, Pressure Iterations: 10
 Time Step:  15900, Simulation Time:      6.66 s, Step Size: 0.00039 s, Pressure Iterations: 8
 Time Step:  16000, Simulation Time:      6.70 s, Step Size: 0.00039 s, Pressure Iterations: 8
 Time Step:  16100, Simulation Time:      6.74 s, Step Size: 0.00039 s, Pressure Iterations: 9
 Time Step:  16200, Simulation Time:      6.78 s, Step Size: 0.00042 s, Pressure Iterations: 9
 Time Step:  16300, Simulation Time:      6.81 s, Step Size: 0.00037 s, Pressure Iterations: 10
 Time Step:  16400, Simulation Time:      6.85 s, Step Size: 0.00041 s, Pressure Iterations: 10
 Time Step:  16500, Simulation Time:      6.89 s, Step Size: 0.00040 s, Pressure Iterations: 9
 Time Step:  16600, Simulation Time:      6.93 s, Step Size: 0.00040 s, Pressure Iterations: 8
 Time Step:  16700, Simulation Time:      6.97 s, Step Size: 0.00038 s, Pressure Iterations: 10
 Time Step:  16800, Simulation Time:      7.01 s, Step Size: 0.00042 s, Pressure Iterations: 7
 Time Step:  16900, Simulation Time:      7.05 s, Step Size: 0.00041 s, Pressure Iterations: 10
 Time Step:  17000, Simulation Time:      7.09 s, Step Size: 0.00037 s, Pressure Iterations: 9
 Time Step:  17100, Simulation Time:      7.13 s, Step Size: 0.00038 s, Pressure Iterations: 9
 Time Step:  17200, Simulation Time:      7.17 s, Step Size: 0.00046 s, Pressure Iterations: 10
 Time Step:  17300, Simulation Time:      7.21 s, Step Size: 0.00041 s, Pressure Iterations: 9
 Time Step:  17400, Simulation Time:      7.25 s, Step Size: 0.00040 s, Pressure Iterations: 9
 Time Step:  17500, Simulation Time:      7.29 s, Step Size: 0.00040 s, Pressure Iterations: 7
 Time Step:  17600, Simulation Time:      7.33 s, Step Size: 0.00044 s, Pressure Iterations: 9
 Time Step:  17700, Simulation Time:      7.38 s, Step Size: 0.00038 s, Pressure Iterations: 9
 Time Step:  17800, Simulation Time:      7.42 s, Step Size: 0.00038 s, Pressure Iterations: 8
 Time Step:  17900, Simulation Time:      7.46 s, Step Size: 0.00042 s, Pressure Iterations: 10
 Time Step:  18000, Simulation Time:      7.50 s, Step Size: 0.00038 s, Pressure Iterations: 10
 Time Step:  18100, Simulation Time:      7.54 s, Step Size: 0.00038 s, Pressure Iterations: 9
 Time Step:  18200, Simulation Time:      7.58 s, Step Size: 0.00041 s, Pressure Iterations: 10
 Time Step:  18300, Simulation Time:      7.62 s, Step Size: 0.00037 s, Pressure Iterations: 9
 Time Step:  18400, Simulation Time:      7.66 s, Step Size: 0.00035 s, Pressure Iterations: 9
 Time Step:  18500, Simulation Time:      7.70 s, Step Size: 0.00042 s, Pressure Iterations: 9
 Time Step:  18600, Simulation Time:      7.73 s, Step Size: 0.00040 s, Pressure Iterations: 8
 Time Step:  18700, Simulation Time:      7.78 s, Step Size: 0.00040 s, Pressure Iterations: 8
 Time Step:  18800, Simulation Time:      7.82 s, Step Size: 0.00039 s, Pressure Iterations: 9
 Time Step:  18900, Simulation Time:      7.86 s, Step Size: 0.00039 s, Pressure Iterations: 10
 Time Step:  19000, Simulation Time:      7.89 s, Step Size: 0.00039 s, Pressure Iterations: 10
 Time Step:  19100, Simulation Time:      7.93 s, Step Size: 0.00039 s, Pressure Iterations: 10
 Time Step:  19200, Simulation Time:      7.97 s, Step Size: 0.00042 s, Pressure Iterations: 9
 Time Step:  19300, Simulation Time:      8.01 s, Step Size: 0.00041 s, Pressure Iterations: 8
 Time Step:  19400, Simulation Time:      8.05 s, Step Size: 0.00036 s, Pressure Iterations: 10
 Time Step:  19500, Simulation Time:      8.09 s, Step Size: 0.00040 s, Pressure Iterations: 9
 Time Step:  19600, Simulation Time:      8.13 s, Step Size: 0.00040 s, Pressure Iterations: 8
 Time Step:  19700, Simulation Time:      8.17 s, Step Size: 0.00036 s, Pressure Iterations: 9
 Time Step:  19800, Simulation Time:      8.21 s, Step Size: 0.00043 s, Pressure Iterations: 10
 Time Step:  19900, Simulation Time:      8.25 s, Step Size: 0.00039 s, Pressure Iterations: 10
 Time Step:  20000, Simulation Time:      8.28 s, Step Size: 0.00038 s, Pressure Iterations: 10
 Time Step:  20100, Simulation Time:      8.32 s, Step Size: 0.00041 s, Pressure Iterations: 8
 Time Step:  20200, Simulation Time:      8.36 s, Step Size: 0.00037 s, Pressure Iterations: 8
 Time Step:  20300, Simulation Time:      8.40 s, Step Size: 0.00045 s, Pressure Iterations: 10
 Time Step:  20400, Simulation Time:      8.45 s, Step Size: 0.00040 s, Pressure Iterations: 8
 Time Step:  20500, Simulation Time:      8.48 s, Step Size: 0.00039 s, Pressure Iterations: 8
 Time Step:  20600, Simulation Time:      8.52 s, Step Size: 0.00039 s, Pressure Iterations: 10
 Time Step:  20700, Simulation Time:      8.56 s, Step Size: 0.00039 s, Pressure Iterations: 10
 Time Step:  20800, Simulation Time:      8.60 s, Step Size: 0.00039 s, Pressure Iterations: 10
 Time Step:  20900, Simulation Time:      8.64 s, Step Size: 0.00038 s, Pressure Iterations: 10
 Time Step:  21000, Simulation Time:      8.68 s, Step Size: 0.00038 s, Pressure Iterations: 10
 Time Step:  21100, Simulation Time:      8.72 s, Step Size: 0.00038 s, Pressure Iterations: 8
 Time Step:  21200, Simulation Time:      8.75 s, Step Size: 0.00038 s, Pressure Iterations: 10
 Time Step:  21300, Simulation Time:      8.79 s, Step Size: 0.00038 s, Pressure Iterations: 9
 Time Step:  21400, Simulation Time:      8.83 s, Step Size: 0.00032 s, Pressure Iterations: 10
 Time Step:  21500, Simulation Time:      8.87 s, Step Size: 0.00043 s, Pressure Iterations: 9
 Time Step:  21600, Simulation Time:      8.91 s, Step Size: 0.00038 s, Pressure Iterations: 9
 Time Step:  21700, Simulation Time:      8.95 s, Step Size: 0.00033 s, Pressure Iterations: 8
 Time Step:  21800, Simulation Time:      8.98 s, Step Size: 0.00036 s, Pressure Iterations: 9
 Time Step:  21900, Simulation Time:      9.02 s, Step Size: 0.00038 s, Pressure Iterations: 10
 Time Step:  22000, Simulation Time:      9.06 s, Step Size: 0.00041 s, Pressure Iterations: 8
 Time Step:  22100, Simulation Time:      9.10 s, Step Size: 0.00041 s, Pressure Iterations: 8
 Time Step:  22200, Simulation Time:      9.14 s, Step Size: 0.00036 s, Pressure Iterations: 9
 Time Step:  22300, Simulation Time:      9.18 s, Step Size: 0.00035 s, Pressure Iterations: 8
 Time Step:  22400, Simulation Time:      9.21 s, Step Size: 0.00038 s, Pressure Iterations: 10
 Time Step:  22500, Simulation Time:      9.25 s, Step Size: 0.00038 s, Pressure Iterations: 10
 Time Step:  22600, Simulation Time:      9.29 s, Step Size: 0.00040 s, Pressure Iterations: 9
 Time Step:  22700, Simulation Time:      9.33 s, Step Size: 0.00039 s, Pressure Iterations: 8
 Time Step:  22800, Simulation Time:      9.37 s, Step Size: 0.00038 s, Pressure Iterations: 9
 Time Step:  22900, Simulation Time:      9.40 s, Step Size: 0.00034 s, Pressure Iterations: 8
 Time Step:  23000, Simulation Time:      9.44 s, Step Size: 0.00042 s, Pressure Iterations: 9
 Time Step:  23100, Simulation Time:      9.48 s, Step Size: 0.00041 s, Pressure Iterations: 10
 Time Step:  23200, Simulation Time:      9.52 s, Step Size: 0.00036 s, Pressure Iterations: 8
 Time Step:  23300, Simulation Time:      9.56 s, Step Size: 0.00039 s, Pressure Iterations: 10
 Time Step:  23400, Simulation Time:      9.59 s, Step Size: 0.00035 s, Pressure Iterations: 8
 Time Step:  23500, Simulation Time:      9.63 s, Step Size: 0.00038 s, Pressure Iterations: 10
 Time Step:  23600, Simulation Time:      9.67 s, Step Size: 0.00042 s, Pressure Iterations: 9
 Time Step:  23700, Simulation Time:      9.71 s, Step Size: 0.00041 s, Pressure Iterations: 8
 Time Step:  23800, Simulation Time:      9.76 s, Step Size: 0.00041 s, Pressure Iterations: 9
 Time Step:  23900, Simulation Time:      9.80 s, Step Size: 0.00039 s, Pressure Iterations: 9
 Time Step:  24000, Simulation Time:      9.83 s, Step Size: 0.00038 s, Pressure Iterations: 9
 Time Step:  24100, Simulation Time:      9.87 s, Step Size: 0.00038 s, Pressure Iterations: 7
 Time Step:  24200, Simulation Time:      9.91 s, Step Size: 0.00037 s, Pressure Iterations: 10
 Time Step:  24300, Simulation Time:      9.95 s, Step Size: 0.00037 s, Pressure Iterations: 8
 Time Step:  24400, Simulation Time:      9.99 s, Step Size: 0.00037 s, Pressure Iterations: 10
 Time Step:  24500, Simulation Time:     10.03 s, Step Size: 0.00037 s, Pressure Iterations: 10
 Time Step:  24600, Simulation Time:     10.06 s, Step Size: 0.00036 s, Pressure Iterations: 9
 Time Step:  24700, Simulation Time:     10.10 s, Step Size: 0.00040 s, Pressure Iterations: 9
 Time Step:  24800, Simulation Time:     10.14 s, Step Size: 0.00039 s, Pressure Iterations: 10
 Time Step:  24900, Simulation Time:     10.18 s, Step Size: 0.00039 s, Pressure Iterations: 9
 Time Step:  25000, Simulation Time:     10.22 s, Step Size: 0.00038 s, Pressure Iterations: 10
 Time Step:  25100, Simulation Time:     10.26 s, Step Size: 0.00037 s, Pressure Iterations: 10
 Time Step:  25200, Simulation Time:     10.30 s, Step Size: 0.00040 s, Pressure Iterations: 10
 Time Step:  25300, Simulation Time:     10.34 s, Step Size: 0.00039 s, Pressure Iterations: 9
 Time Step:  25400, Simulation Time:     10.38 s, Step Size: 0.00039 s, Pressure Iterations: 10
 Time Step:  25500, Simulation Time:     10.42 s, Step Size: 0.00038 s, Pressure Iterations: 8
 Time Step:  25600, Simulation Time:     10.46 s, Step Size: 0.00037 s, Pressure Iterations: 9
 Time Step:  25700, Simulation Time:     10.50 s, Step Size: 0.00037 s, Pressure Iterations: 10
 Time Step:  25800, Simulation Time:     10.53 s, Step Size: 0.00036 s, Pressure Iterations: 8
 Time Step:  25900, Simulation Time:     10.57 s, Step Size: 0.00039 s, Pressure Iterations: 9
 Time Step:  26000, Simulation Time:     10.61 s, Step Size: 0.00043 s, Pressure Iterations: 10
 Time Step:  26100, Simulation Time:     10.65 s, Step Size: 0.00043 s, Pressure Iterations: 10
 Time Step:  26200, Simulation Time:     10.69 s, Step Size: 0.00034 s, Pressure Iterations: 8
 Time Step:  26300, Simulation Time:     10.73 s, Step Size: 0.00033 s, Pressure Iterations: 10
 Time Step:  26400, Simulation Time:     10.76 s, Step Size: 0.00039 s, Pressure Iterations: 8
 Time Step:  26500, Simulation Time:     10.80 s, Step Size: 0.00039 s, Pressure Iterations: 8
 Time Step:  26600, Simulation Time:     10.84 s, Step Size: 0.00039 s, Pressure Iterations: 9
 Time Step:  26700, Simulation Time:     10.88 s, Step Size: 0.00039 s, Pressure Iterations: 9
 Time Step:  26800, Simulation Time:     10.92 s, Step Size: 0.00043 s, Pressure Iterations: 10
 Time Step:  26900, Simulation Time:     10.97 s, Step Size: 0.00043 s, Pressure Iterations: 10
 Time Step:  27000, Simulation Time:     11.01 s, Step Size: 0.00037 s, Pressure Iterations: 10
 Time Step:  27100, Simulation Time:     11.05 s, Step Size: 0.00036 s, Pressure Iterations: 9
 Time Step:  27200, Simulation Time:     11.08 s, Step Size: 0.00040 s, Pressure Iterations: 10
 Time Step:  27300, Simulation Time:     11.12 s, Step Size: 0.00040 s, Pressure Iterations: 8
 Time Step:  27400, Simulation Time:     11.16 s, Step Size: 0.00040 s, Pressure Iterations: 9
 Time Step:  27500, Simulation Time:     11.20 s, Step Size: 0.00039 s, Pressure Iterations: 10
 Time Step:  27600, Simulation Time:     11.24 s, Step Size: 0.00039 s, Pressure Iterations: 10
 Time Step:  27700, Simulation Time:     11.27 s, Step Size: 0.00035 s, Pressure Iterations: 9
 Time Step:  27800, Simulation Time:     11.31 s, Step Size: 0.00039 s, Pressure Iterations: 9
 Time Step:  27900, Simulation Time:     11.35 s, Step Size: 0.00043 s, Pressure Iterations: 10
 Time Step:  28000, Simulation Time:     11.40 s, Step Size: 0.00042 s, Pressure Iterations: 10
 Time Step:  28100, Simulation Time:     11.44 s, Step Size: 0.00042 s, Pressure Iterations: 8
 Time Step:  28200, Simulation Time:     11.48 s, Step Size: 0.00037 s, Pressure Iterations: 8
 Time Step:  28300, Simulation Time:     11.52 s, Step Size: 0.00041 s, Pressure Iterations: 10
 Time Step:  28400, Simulation Time:     11.56 s, Step Size: 0.00039 s, Pressure Iterations: 10
 Time Step:  28500, Simulation Time:     11.60 s, Step Size: 0.00039 s, Pressure Iterations: 10
 Time Step:  28600, Simulation Time:     11.64 s, Step Size: 0.00043 s, Pressure Iterations: 9
 Time Step:  28700, Simulation Time:     11.68 s, Step Size: 0.00038 s, Pressure Iterations: 9
 Time Step:  28800, Simulation Time:     11.72 s, Step Size: 0.00042 s, Pressure Iterations: 10
 Time Step:  28900, Simulation Time:     11.76 s, Step Size: 0.00046 s, Pressure Iterations: 9
 Time Step:  29000, Simulation Time:     11.80 s, Step Size: 0.00041 s, Pressure Iterations: 9
 Time Step:  29100, Simulation Time:     11.84 s, Step Size: 0.00041 s, Pressure Iterations: 10
 Time Step:  29200, Simulation Time:     11.88 s, Step Size: 0.00040 s, Pressure Iterations: 10
 Time Step:  29300, Simulation Time:     11.92 s, Step Size: 0.00039 s, Pressure Iterations: 7
 Time Step:  29400, Simulation Time:     11.96 s, Step Size: 0.00039 s, Pressure Iterations: 8
 Time Step:  29500, Simulation Time:     12.00 s, Step Size: 0.00037 s, Pressure Iterations: 8
 Time Step:  29600, Simulation Time:     12.03 s, Step Size: 0.00044 s, Pressure Iterations: 10
 Time Step:  29700, Simulation Time:     12.07 s, Step Size: 0.00038 s, Pressure Iterations: 10
 Time Step:  29800, Simulation Time:     12.11 s, Step Size: 0.00034 s, Pressure Iterations: 8
 Time Step:  29900, Simulation Time:     12.15 s, Step Size: 0.00037 s, Pressure Iterations: 8
 Time Step:  30000, Simulation Time:     12.19 s, Step Size: 0.00041 s, Pressure Iterations: 9
 Time Step:  30100, Simulation Time:     12.23 s, Step Size: 0.00037 s, Pressure Iterations: 10
 Time Step:  30200, Simulation Time:     12.27 s, Step Size: 0.00040 s, Pressure Iterations: 10
 Time Step:  30300, Simulation Time:     12.31 s, Step Size: 0.00040 s, Pressure Iterations: 9
 Time Step:  30400, Simulation Time:     12.35 s, Step Size: 0.00044 s, Pressure Iterations: 8
 Time Step:  30500, Simulation Time:     12.39 s, Step Size: 0.00044 s, Pressure Iterations: 9
 Time Step:  30600, Simulation Time:     12.44 s, Step Size: 0.00040 s, Pressure Iterations: 9
 Time Step:  30700, Simulation Time:     12.47 s, Step Size: 0.00036 s, Pressure Iterations: 8
 Time Step:  30800, Simulation Time:     12.52 s, Step Size: 0.00043 s, Pressure Iterations: 10
 Time Step:  30900, Simulation Time:     12.55 s, Step Size: 0.00038 s, Pressure Iterations: 9
 Time Step:  31000, Simulation Time:     12.59 s, Step Size: 0.00042 s, Pressure Iterations: 8
 Time Step:  31100, Simulation Time:     12.63 s, Step Size: 0.00041 s, Pressure Iterations: 9
 Time Step:  31200, Simulation Time:     12.67 s, Step Size: 0.00036 s, Pressure Iterations: 7
 Time Step:  31300, Simulation Time:     12.71 s, Step Size: 0.00040 s, Pressure Iterations: 10
 Time Step:  31400, Simulation Time:     12.75 s, Step Size: 0.00044 s, Pressure Iterations: 10
 Time Step:  31500, Simulation Time:     12.79 s, Step Size: 0.00039 s, Pressure Iterations: 9
 Time Step:  31600, Simulation Time:     12.83 s, Step Size: 0.00039 s, Pressure Iterations: 9
 Time Step:  31700, Simulation Time:     12.87 s, Step Size: 0.00043 s, Pressure Iterations: 10
 Time Step:  31800, Simulation Time:     12.92 s, Step Size: 0.00041 s, Pressure Iterations: 9
 Time Step:  31900, Simulation Time:     12.96 s, Step Size: 0.00037 s, Pressure Iterations: 10
 Time Step:  32000, Simulation Time:     12.99 s, Step Size: 0.00040 s, Pressure Iterations: 10
 Time Step:  32100, Simulation Time:     13.04 s, Step Size: 0.00044 s, Pressure Iterations: 9
 Time Step:  32200, Simulation Time:     13.08 s, Step Size: 0.00040 s, Pressure Iterations: 9
 Time Step:  32300, Simulation Time:     13.12 s, Step Size: 0.00035 s, Pressure Iterations: 10
 Time Step:  32400, Simulation Time:     13.16 s, Step Size: 0.00038 s, Pressure Iterations: 9
 Time Step:  32500, Simulation Time:     13.20 s, Step Size: 0.00042 s, Pressure Iterations: 10
 Time Step:  32600, Simulation Time:     13.24 s, Step Size: 0.00042 s, Pressure Iterations: 8
 Time Step:  32700, Simulation Time:     13.28 s, Step Size: 0.00042 s, Pressure Iterations: 10
 Time Step:  32800, Simulation Time:     13.32 s, Step Size: 0.00042 s, Pressure Iterations: 10
 Time Step:  32900, Simulation Time:     13.36 s, Step Size: 0.00036 s, Pressure Iterations: 9
 Time Step:  33000, Simulation Time:     13.40 s, Step Size: 0.00039 s, Pressure Iterations: 8
 Time Step:  33100, Simulation Time:     13.44 s, Step Size: 0.00043 s, Pressure Iterations: 10
 Time Step:  33200, Simulation Time:     13.49 s, Step Size: 0.00041 s, Pressure Iterations: 9
 Time Step:  33300, Simulation Time:     13.53 s, Step Size: 0.00037 s, Pressure Iterations: 10
 Time Step:  33400, Simulation Time:     13.56 s, Step Size: 0.00039 s, Pressure Iterations: 10
 Time Step:  33500, Simulation Time:     13.60 s, Step Size: 0.00039 s, Pressure Iterations: 10
 Time Step:  33600, Simulation Time:     13.64 s, Step Size: 0.00039 s, Pressure Iterations: 10
 Time Step:  33700, Simulation Time:     13.68 s, Step Size: 0.00039 s, Pressure Iterations: 10
 Time Step:  33800, Simulation Time:     13.72 s, Step Size: 0.00039 s, Pressure Iterations: 10
 Time Step:  33900, Simulation Time:     13.76 s, Step Size: 0.00042 s, Pressure Iterations: 9
 Time Step:  34000, Simulation Time:     13.80 s, Step Size: 0.00037 s, Pressure Iterations: 8
 Time Step:  34100, Simulation Time:     13.84 s, Step Size: 0.00040 s, Pressure Iterations: 9
 Time Step:  34200, Simulation Time:     13.88 s, Step Size: 0.00040 s, Pressure Iterations: 10
 Time Step:  34300, Simulation Time:     13.92 s, Step Size: 0.00042 s, Pressure Iterations: 10
 Time Step:  34400, Simulation Time:     13.96 s, Step Size: 0.00037 s, Pressure Iterations: 8
 Time Step:  34500, Simulation Time:     14.00 s, Step Size: 0.00041 s, Pressure Iterations: 10
 Time Step:  34600, Simulation Time:     14.04 s, Step Size: 0.00036 s, Pressure Iterations: 10
 Time Step:  34700, Simulation Time:     14.07 s, Step Size: 0.00040 s, Pressure Iterations: 8
 Time Step:  34800, Simulation Time:     14.12 s, Step Size: 0.00044 s, Pressure Iterations: 10
 Time Step:  34900, Simulation Time:     14.16 s, Step Size: 0.00035 s, Pressure Iterations: 9
 Time Step:  35000, Simulation Time:     14.20 s, Step Size: 0.00039 s, Pressure Iterations: 10
 Time Step:  35100, Simulation Time:     14.23 s, Step Size: 0.00038 s, Pressure Iterations: 10
 Time Step:  35200, Simulation Time:     14.27 s, Step Size: 0.00037 s, Pressure Iterations: 9
 Time Step:  35300, Simulation Time:     14.31 s, Step Size: 0.00037 s, Pressure Iterations: 10
 Time Step:  35400, Simulation Time:     14.35 s, Step Size: 0.00044 s, Pressure Iterations: 8
 Time Step:  35500, Simulation Time:     14.39 s, Step Size: 0.00042 s, Pressure Iterations: 8
 Time Step:  35600, Simulation Time:     14.43 s, Step Size: 0.00042 s, Pressure Iterations: 10
 Time Step:  35700, Simulation Time:     14.47 s, Step Size: 0.00042 s, Pressure Iterations: 10
 Time Step:  35800, Simulation Time:     14.51 s, Step Size: 0.00037 s, Pressure Iterations: 9
 Time Step:  35900, Simulation Time:     14.55 s, Step Size: 0.00043 s, Pressure Iterations: 10
 Time Step:  36000, Simulation Time:     14.59 s, Step Size: 0.00046 s, Pressure Iterations: 10
 Time Step:  36100, Simulation Time:     14.64 s, Step Size: 0.00036 s, Pressure Iterations: 10
 Time Step:  36200, Simulation Time:     14.68 s, Step Size: 0.00044 s, Pressure Iterations: 10
 Time Step:  36300, Simulation Time:     14.72 s, Step Size: 0.00038 s, Pressure Iterations: 10
 Time Step:  36400, Simulation Time:     14.76 s, Step Size: 0.00040 s, Pressure Iterations: 8
 Time Step:  36500, Simulation Time:     14.80 s, Step Size: 0.00044 s, Pressure Iterations: 8
 Time Step:  36600, Simulation Time:     14.84 s, Step Size: 0.00039 s, Pressure Iterations: 9
 Time Step:  36700, Simulation Time:     14.88 s, Step Size: 0.00035 s, Pressure Iterations: 9
 Time Step:  36800, Simulation Time:     14.91 s, Step Size: 0.00038 s, Pressure Iterations: 9
 Time Step:  36900, Simulation Time:     14.96 s, Step Size: 0.00046 s, Pressure Iterations: 10
 Time Step:  37000, Simulation Time:     15.00 s, Step Size: 0.00049 s, Pressure Iterations: 9
 Time Step:  37100, Simulation Time:     15.05 s, Step Size: 0.00044 s, Pressure Iterations: 10
 Time Step:  37200, Simulation Time:     15.09 s, Step Size: 0.00035 s, Pressure Iterations: 8
 Time Step:  37300, Simulation Time:     15.13 s, Step Size: 0.00042 s, Pressure Iterations: 9
 Time Step:  37400, Simulation Time:     15.17 s, Step Size: 0.00037 s, Pressure Iterations: 8
 Time Step:  37500, Simulation Time:     15.21 s, Step Size: 0.00041 s, Pressure Iterations: 10
 Time Step:  37600, Simulation Time:     15.25 s, Step Size: 0.00040 s, Pressure Iterations: 9
 Time Step:  37700, Simulation Time:     15.29 s, Step Size: 0.00044 s, Pressure Iterations: 10
 Time Step:  37800, Simulation Time:     15.33 s, Step Size: 0.00044 s, Pressure Iterations: 9
 Time Step:  37900, Simulation Time:     15.38 s, Step Size: 0.00044 s, Pressure Iterations: 10
 Time Step:  38000, Simulation Time:     15.42 s, Step Size: 0.00038 s, Pressure Iterations: 8
 Time Step:  38100, Simulation Time:     15.46 s, Step Size: 0.00042 s, Pressure Iterations: 9
 Time Step:  38200, Simulation Time:     15.50 s, Step Size: 0.00041 s, Pressure Iterations: 10
 Time Step:  38300, Simulation Time:     15.54 s, Step Size: 0.00037 s, Pressure Iterations: 8
 Time Step:  38400, Simulation Time:     15.58 s, Step Size: 0.00036 s, Pressure Iterations: 10
 Time Step:  38500, Simulation Time:     15.62 s, Step Size: 0.00039 s, Pressure Iterations: 10
 Time Step:  38600, Simulation Time:     15.66 s, Step Size: 0.00038 s, Pressure Iterations: 9
 Time Step:  38700, Simulation Time:     15.70 s, Step Size: 0.00042 s, Pressure Iterations: 9
 Time Step:  38800, Simulation Time:     15.74 s, Step Size: 0.00037 s, Pressure Iterations: 10
 Time Step:  38900, Simulation Time:     15.78 s, Step Size: 0.00039 s, Pressure Iterations: 10
 Time Step:  39000, Simulation Time:     15.82 s, Step Size: 0.00039 s, Pressure Iterations: 10
 Time Step:  39100, Simulation Time:     15.85 s, Step Size: 0.00039 s, Pressure Iterations: 9
 Time Step:  39200, Simulation Time:     15.89 s, Step Size: 0.00047 s, Pressure Iterations: 10
 Time Step:  39300, Simulation Time:     15.94 s, Step Size: 0.00047 s, Pressure Iterations: 10
 Time Step:  39400, Simulation Time:     15.99 s, Step Size: 0.00045 s, Pressure Iterations: 9
 Time Step:  39500, Simulation Time:     16.03 s, Step Size: 0.00045 s, Pressure Iterations: 10
 Time Step:  39600, Simulation Time:     16.07 s, Step Size: 0.00036 s, Pressure Iterations: 9
 Time Step:  39700, Simulation Time:     16.11 s, Step Size: 0.00040 s, Pressure Iterations: 10
 Time Step:  39800, Simulation Time:     16.15 s, Step Size: 0.00041 s, Pressure Iterations: 10
 Time Step:  39900, Simulation Time:     16.19 s, Step Size: 0.00041 s, Pressure Iterations: 9
 Time Step:  40000, Simulation Time:     16.23 s, Step Size: 0.00040 s, Pressure Iterations: 9
 Time Step:  40100, Simulation Time:     16.27 s, Step Size: 0.00040 s, Pressure Iterations: 8
 Time Step:  40200, Simulation Time:     16.31 s, Step Size: 0.00039 s, Pressure Iterations: 9
 Time Step:  40300, Simulation Time:     16.35 s, Step Size: 0.00038 s, Pressure Iterations: 10
 Time Step:  40400, Simulation Time:     16.39 s, Step Size: 0.00042 s, Pressure Iterations: 10
 Time Step:  40500, Simulation Time:     16.43 s, Step Size: 0.00042 s, Pressure Iterations: 10
 Time Step:  40600, Simulation Time:     16.48 s, Step Size: 0.00042 s, Pressure Iterations: 10
 Time Step:  40700, Simulation Time:     16.52 s, Step Size: 0.00037 s, Pressure Iterations: 9
 Time Step:  40800, Simulation Time:     16.56 s, Step Size: 0.00041 s, Pressure Iterations: 10
 Time Step:  40900, Simulation Time:     16.60 s, Step Size: 0.00041 s, Pressure Iterations: 10
 Time Step:  41000, Simulation Time:     16.64 s, Step Size: 0.00050 s, Pressure Iterations: 9
 Time Step:  41100, Simulation Time:     16.69 s, Step Size: 0.00045 s, Pressure Iterations: 10
 Time Step:  41200, Simulation Time:     16.73 s, Step Size: 0.00039 s, Pressure Iterations: 9
 Time Step:  41300, Simulation Time:     16.77 s, Step Size: 0.00043 s, Pressure Iterations: 9
 Time Step:  41400, Simulation Time:     16.80 s, Step Size: 0.00038 s, Pressure Iterations: 9
 Time Step:  41500, Simulation Time:     16.84 s, Step Size: 0.00038 s, Pressure Iterations: 10
 Time Step:  41600, Simulation Time:     16.88 s, Step Size: 0.00042 s, Pressure Iterations: 10
 Time Step:  41700, Simulation Time:     16.92 s, Step Size: 0.00042 s, Pressure Iterations: 9
 Time Step:  41800, Simulation Time:     16.97 s, Step Size: 0.00040 s, Pressure Iterations: 8
 Time Step:  41900, Simulation Time:     17.01 s, Step Size: 0.00039 s, Pressure Iterations: 10
 Time Step:  42000, Simulation Time:     17.05 s, Step Size: 0.00043 s, Pressure Iterations: 9
 Time Step:  42100, Simulation Time:     17.10 s, Step Size: 0.00042 s, Pressure Iterations: 9
 Time Step:  42200, Simulation Time:     17.14 s, Step Size: 0.00038 s, Pressure Iterations: 10
 Time Step:  42300, Simulation Time:     17.18 s, Step Size: 0.00042 s, Pressure Iterations: 10
 Time Step:  42400, Simulation Time:     17.22 s, Step Size: 0.00042 s, Pressure Iterations: 10
 Time Step:  42500, Simulation Time:     17.26 s, Step Size: 0.00041 s, Pressure Iterations: 8
 Time Step:  42600, Simulation Time:     17.30 s, Step Size: 0.00041 s, Pressure Iterations: 10
 Time Step:  42700, Simulation Time:     17.34 s, Step Size: 0.00040 s, Pressure Iterations: 10
 Time Step:  42800, Simulation Time:     17.38 s, Step Size: 0.00044 s, Pressure Iterations: 10
 Time Step:  42900, Simulation Time:     17.42 s, Step Size: 0.00042 s, Pressure Iterations: 10
 Time Step:  43000, Simulation Time:     17.46 s, Step Size: 0.00038 s, Pressure Iterations: 9
 Time Step:  43100, Simulation Time:     17.50 s, Step Size: 0.00046 s, Pressure Iterations: 10
 Time Step:  43200, Simulation Time:     17.55 s, Step Size: 0.00041 s, Pressure Iterations: 10
 Time Step:  43300, Simulation Time:     17.59 s, Step Size: 0.00036 s, Pressure Iterations: 9
 Time Step:  43400, Simulation Time:     17.63 s, Step Size: 0.00040 s, Pressure Iterations: 10
 Time Step:  43500, Simulation Time:     17.67 s, Step Size: 0.00040 s, Pressure Iterations: 10
 Time Step:  43600, Simulation Time:     17.71 s, Step Size: 0.00038 s, Pressure Iterations: 10
 Time Step:  43700, Simulation Time:     17.75 s, Step Size: 0.00037 s, Pressure Iterations: 10
 Time Step:  43800, Simulation Time:     17.78 s, Step Size: 0.00037 s, Pressure Iterations: 8
 Time Step:  43900, Simulation Time:     17.82 s, Step Size: 0.00036 s, Pressure Iterations: 10
 Time Step:  44000, Simulation Time:     17.86 s, Step Size: 0.00040 s, Pressure Iterations: 10
 Time Step:  44100, Simulation Time:     17.90 s, Step Size: 0.00038 s, Pressure Iterations: 10
 Time Step:  44200, Simulation Time:     17.94 s, Step Size: 0.00042 s, Pressure Iterations: 10
 Time Step:  44300, Simulation Time:     17.98 s, Step Size: 0.00038 s, Pressure Iterations: 10
 Time Step:  44400, Simulation Time:     18.02 s, Step Size: 0.00041 s, Pressure Iterations: 10
 Time Step:  44500, Simulation Time:     18.06 s, Step Size: 0.00039 s, Pressure Iterations: 10
 Time Step:  44600, Simulation Time:     18.10 s, Step Size: 0.00039 s, Pressure Iterations: 10
 Time Step:  44700, Simulation Time:     18.14 s, Step Size: 0.00043 s, Pressure Iterations: 10
 Time Step:  44800, Simulation Time:     18.18 s, Step Size: 0.00042 s, Pressure Iterations: 9
 Time Step:  44900, Simulation Time:     18.22 s, Step Size: 0.00042 s, Pressure Iterations: 9
 Time Step:  45000, Simulation Time:     18.27 s, Step Size: 0.00042 s, Pressure Iterations: 10
 Time Step:  45100, Simulation Time:     18.31 s, Step Size: 0.00037 s, Pressure Iterations: 9
 Time Step:  45200, Simulation Time:     18.35 s, Step Size: 0.00044 s, Pressure Iterations: 10
 Time Step:  45300, Simulation Time:     18.39 s, Step Size: 0.00042 s, Pressure Iterations: 10
 Time Step:  45400, Simulation Time:     18.43 s, Step Size: 0.00037 s, Pressure Iterations: 10
 Time Step:  45500, Simulation Time:     18.47 s, Step Size: 0.00041 s, Pressure Iterations: 10
 Time Step:  45600, Simulation Time:     18.51 s, Step Size: 0.00037 s, Pressure Iterations: 10
 Time Step:  45700, Simulation Time:     18.55 s, Step Size: 0.00041 s, Pressure Iterations: 10
 Time Step:  45800, Simulation Time:     18.59 s, Step Size: 0.00041 s, Pressure Iterations: 10
 Time Step:  45900, Simulation Time:     18.63 s, Step Size: 0.00040 s, Pressure Iterations: 10
 Time Step:  46000, Simulation Time:     18.67 s, Step Size: 0.00040 s, Pressure Iterations: 9
 Time Step:  46100, Simulation Time:     18.71 s, Step Size: 0.00038 s, Pressure Iterations: 10
 Time Step:  46200, Simulation Time:     18.75 s, Step Size: 0.00038 s, Pressure Iterations: 10
 Time Step:  46300, Simulation Time:     18.79 s, Step Size: 0.00042 s, Pressure Iterations: 10
 Time Step:  46400, Simulation Time:     18.83 s, Step Size: 0.00037 s, Pressure Iterations: 10
 Time Step:  46500, Simulation Time:     18.87 s, Step Size: 0.00045 s, Pressure Iterations: 10
 Time Step:  46600, Simulation Time:     18.91 s, Step Size: 0.00040 s, Pressure Iterations: 10
 Time Step:  46700, Simulation Time:     18.95 s, Step Size: 0.00044 s, Pressure Iterations: 10
 Time Step:  46800, Simulation Time:     18.99 s, Step Size: 0.00039 s, Pressure Iterations: 10
 Time Step:  46900, Simulation Time:     19.03 s, Step Size: 0.00043 s, Pressure Iterations: 10
 Time Step:  47000, Simulation Time:     19.07 s, Step Size: 0.00042 s, Pressure Iterations: 10
 Time Step:  47100, Simulation Time:     19.12 s, Step Size: 0.00046 s, Pressure Iterations: 10
 Time Step:  47200, Simulation Time:     19.16 s, Step Size: 0.00046 s, Pressure Iterations: 10
 Time Step:  47300, Simulation Time:     19.20 s, Step Size: 0.00041 s, Pressure Iterations: 10
 Time Step:  47400, Simulation Time:     19.24 s, Step Size: 0.00040 s, Pressure Iterations: 10
 Time Step:  47500, Simulation Time:     19.28 s, Step Size: 0.00040 s, Pressure Iterations: 10
 Time Step:  47600, Simulation Time:     19.33 s, Step Size: 0.00043 s, Pressure Iterations: 10
 Time Step:  47700, Simulation Time:     19.37 s, Step Size: 0.00037 s, Pressure Iterations: 10
 Time Step:  47800, Simulation Time:     19.40 s, Step Size: 0.00040 s, Pressure Iterations: 10
 Time Step:  47900, Simulation Time:     19.44 s, Step Size: 0.00042 s, Pressure Iterations: 10
 Time Step:  48000, Simulation Time:     19.49 s, Step Size: 0.00042 s, Pressure Iterations: 10
 Time Step:  48100, Simulation Time:     19.53 s, Step Size: 0.00042 s, Pressure Iterations: 10
 Time Step:  48200, Simulation Time:     19.57 s, Step Size: 0.00042 s, Pressure Iterations: 10
 Time Step:  48300, Simulation Time:     19.61 s, Step Size: 0.00038 s, Pressure Iterations: 10
 Time Step:  48400, Simulation Time:     19.65 s, Step Size: 0.00037 s, Pressure Iterations: 10
 Time Step:  48500, Simulation Time:     19.69 s, Step Size: 0.00045 s, Pressure Iterations: 10
 Time Step:  48600, Simulation Time:     19.73 s, Step Size: 0.00040 s, Pressure Iterations: 10
 Time Step:  48700, Simulation Time:     19.77 s, Step Size: 0.00040 s, Pressure Iterations: 10
 Time Step:  48800, Simulation Time:     19.82 s, Step Size: 0.00039 s, Pressure Iterations: 10
 Time Step:  48900, Simulation Time:     19.86 s, Step Size: 0.00042 s, Pressure Iterations: 10
 Time Step:  49000, Simulation Time:     19.90 s, Step Size: 0.00043 s, Pressure Iterations: 10
 Time Step:  49100, Simulation Time:     19.94 s, Step Size: 0.00042 s, Pressure Iterations: 10
 Time Step:  49200, Simulation Time:     19.98 s, Step Size: 0.00041 s, Pressure Iterations: 10
 Time Step:  49300, Simulation Time:     20.02 s, Step Size: 0.00030 s, Pressure Iterations: 10
 Time Step:  49400, Simulation Time:     20.06 s, Step Size: 0.00039 s, Pressure Iterations: 10
 Time Step:  49500, Simulation Time:     20.10 s, Step Size: 0.00042 s, Pressure Iterations: 10
 Time Step:  49600, Simulation Time:     20.14 s, Step Size: 0.00041 s, Pressure Iterations: 10
 Time Step:  49700, Simulation Time:     20.18 s, Step Size: 0.00041 s, Pressure Iterations: 10
 Time Step:  49800, Simulation Time:     20.22 s, Step Size: 0.00041 s, Pressure Iterations: 10
 Time Step:  49900, Simulation Time:     20.26 s, Step Size: 0.00038 s, Pressure Iterations: 10
 Time Step:  50000, Simulation Time:     20.30 s, Step Size: 0.00042 s, Pressure Iterations: 10
 Time Step:  50100, Simulation Time:     20.34 s, Step Size: 0.00041 s, Pressure Iterations: 10
 Time Step:  50200, Simulation Time:     20.38 s, Step Size: 0.00036 s, Pressure Iterations: 10
 Time Step:  50300, Simulation Time:     20.42 s, Step Size: 0.00039 s, Pressure Iterations: 10
 Time Step:  50400, Simulation Time:     20.46 s, Step Size: 0.00039 s, Pressure Iterations: 10
 Time Step:  50500, Simulation Time:     20.50 s, Step Size: 0.00041 s, Pressure Iterations: 10
 Time Step:  50600, Simulation Time:     20.54 s, Step Size: 0.00041 s, Pressure Iterations: 10
 Time Step:  50700, Simulation Time:     20.58 s, Step Size: 0.00036 s, Pressure Iterations: 9
 Time Step:  50800, Simulation Time:     20.62 s, Step Size: 0.00035 s, Pressure Iterations: 10
 Time Step:  50900, Simulation Time:     20.66 s, Step Size: 0.00042 s, Pressure Iterations: 10
 Time Step:  51000, Simulation Time:     20.70 s, Step Size: 0.00042 s, Pressure Iterations: 10
 Time Step:  51100, Simulation Time:     20.74 s, Step Size: 0.00042 s, Pressure Iterations: 10
 Time Step:  51200, Simulation Time:     20.78 s, Step Size: 0.00046 s, Pressure Iterations: 10
 Time Step:  51300, Simulation Time:     20.83 s, Step Size: 0.00041 s, Pressure Iterations: 10
 Time Step:  51400, Simulation Time:     20.87 s, Step Size: 0.00039 s, Pressure Iterations: 10
 Time Step:  51500, Simulation Time:     20.91 s, Step Size: 0.00043 s, Pressure Iterations: 10
 Time Step:  51600, Simulation Time:     20.95 s, Step Size: 0.00034 s, Pressure Iterations: 9
 Time Step:  51700, Simulation Time:     20.99 s, Step Size: 0.00046 s, Pressure Iterations: 10
 Time Step:  51800, Simulation Time:     21.03 s, Step Size: 0.00040 s, Pressure Iterations: 10
 Time Step:  51900, Simulation Time:     21.07 s, Step Size: 0.00044 s, Pressure Iterations: 10
 Time Step:  52000, Simulation Time:     21.11 s, Step Size: 0.00039 s, Pressure Iterations: 10
 Time Step:  52100, Simulation Time:     21.16 s, Step Size: 0.00046 s, Pressure Iterations: 10
 Time Step:  52200, Simulation Time:     21.20 s, Step Size: 0.00046 s, Pressure Iterations: 10
 Time Step:  52300, Simulation Time:     21.24 s, Step Size: 0.00041 s, Pressure Iterations: 10
 Time Step:  52400, Simulation Time:     21.28 s, Step Size: 0.00037 s, Pressure Iterations: 10
 Time Step:  52500, Simulation Time:     21.32 s, Step Size: 0.00048 s, Pressure Iterations: 10
 Time Step:  52600, Simulation Time:     21.37 s, Step Size: 0.00042 s, Pressure Iterations: 10
 Time Step:  52700, Simulation Time:     21.41 s, Step Size: 0.00042 s, Pressure Iterations: 10
[...]
 Time Step:  95200, Simulation Time:     39.93 s, Step Size: 0.00050 s, Pressure Iterations: 10
 Time Step:  95300, Simulation Time:     39.98 s, Step Size: 0.00050 s, Pressure Iterations: 10
 Time Step:  95400, Simulation Time:     40.03 s, Step Size: 0.00044 s, Pressure Iterations: 10
 Time Step:  95500, Simulation Time:     40.07 s, Step Size: 0.00044 s, Pressure Iterations: 10
 Time Step:  95600, Simulation Time:     40.12 s, Step Size: 0.00049 s, Pressure Iterations: 10
 Time Step:  95700, Simulation Time:     40.17 s, Step Size: 0.00049 s, Pressure Iterations: 10
 Time Step:  95800, Simulation Time:     40.21 s, Step Size: 0.00044 s, Pressure Iterations: 10
 Time Step:  95900, Simulation Time:     40.26 s, Step Size: 0.00044 s, Pressure Iterations: 10
 Time Step:  96000, Simulation Time:     40.31 s, Step Size: 0.00053 s, Pressure Iterations: 10
 Time Step:  96100, Simulation Time:     40.36 s, Step Size: 0.00048 s, Pressure Iterations: 10
 Time Step:  96200, Simulation Time:     40.41 s, Step Size: 0.00047 s, Pressure Iterations: 10
 Time Step:  96300, Simulation Time:     40.46 s, Step Size: 0.00052 s, Pressure Iterations: 10
 Time Step:  96400, Simulation Time:     40.51 s, Step Size: 0.00042 s, Pressure Iterations: 10
 Time Step:  96500, Simulation Time:     40.55 s, Step Size: 0.00050 s, Pressure Iterations: 10
 Time Step:  96600, Simulation Time:     40.60 s, Step Size: 0.00050 s, Pressure Iterations: 10
 Time Step:  96700, Simulation Time:     40.65 s, Step Size: 0.00050 s, Pressure Iterations: 10
 Time Step:  96800, Simulation Time:     40.70 s, Step Size: 0.00044 s, Pressure Iterations: 10
 Time Step:  96900, Simulation Time:     40.75 s, Step Size: 0.00054 s, Pressure Iterations: 10
 Time Step:  97000, Simulation Time:     40.79 s, Step Size: 0.00052 s, Pressure Iterations: 10
 Time Step:  97100, Simulation Time:     40.84 s, Step Size: 0.00046 s, Pressure Iterations: 10
 Time Step:  97200, Simulation Time:     40.89 s, Step Size: 0.00050 s, Pressure Iterations: 10
 Time Step:  97300, Simulation Time:     40.94 s, Step Size: 0.00049 s, Pressure Iterations: 10
 Time Step:  97400, Simulation Time:     40.99 s, Step Size: 0.00053 s, Pressure Iterations: 10
 Time Step:  97500, Simulation Time:     41.04 s, Step Size: 0.00050 s, Pressure Iterations: 10
 Time Step:  97600, Simulation Time:     41.09 s, Step Size: 0.00053 s, Pressure Iterations: 10
 Time Step:  97700, Simulation Time:     41.13 s, Step Size: 0.00047 s, Pressure Iterations: 10
 Time Step:  97800, Simulation Time:     41.18 s, Step Size: 0.00050 s, Pressure Iterations: 10
 Time Step:  97900, Simulation Time:     41.23 s, Step Size: 0.00049 s, Pressure Iterations: 10
 Time Step:  98000, Simulation Time:     41.28 s, Step Size: 0.00048 s, Pressure Iterations: 10
 Time Step:  98100, Simulation Time:     41.33 s, Step Size: 0.00053 s, Pressure Iterations: 10
 Time Step:  98200, Simulation Time:     41.38 s, Step Size: 0.00052 s, Pressure Iterations: 10
 Time Step:  98300, Simulation Time:     41.44 s, Step Size: 0.00054 s, Pressure Iterations: 10
 Time Step:  98400, Simulation Time:     41.49 s, Step Size: 0.00054 s, Pressure Iterations: 10
 Time Step:  98500, Simulation Time:     41.54 s, Step Size: 0.00054 s, Pressure Iterations: 10
 Time Step:  98600, Simulation Time:     41.59 s, Step Size: 0.00052 s, Pressure Iterations: 10
 Time Step:  98700, Simulation Time:     41.64 s, Step Size: 0.00046 s, Pressure Iterations: 10
 Time Step:  98800, Simulation Time:     41.69 s, Step Size: 0.00053 s, Pressure Iterations: 10
 Time Step:  98900, Simulation Time:     41.74 s, Step Size: 0.00052 s, Pressure Iterations: 10
 Time Step:  99000, Simulation Time:     41.79 s, Step Size: 0.00051 s, Pressure Iterations: 10
 Time Step:  99100, Simulation Time:     41.85 s, Step Size: 0.00050 s, Pressure Iterations: 10
 Time Step:  99200, Simulation Time:     41.90 s, Step Size: 0.00054 s, Pressure Iterations: 10
 Time Step:  99300, Simulation Time:     41.95 s, Step Size: 0.00052 s, Pressure Iterations: 10
 Time Step:  99400, Simulation Time:     42.00 s, Step Size: 0.00056 s, Pressure Iterations: 10
 Time Step:  99500, Simulation Time:     42.06 s, Step Size: 0.00054 s, Pressure Iterations: 10
 Time Step:  99600, Simulation Time:     42.11 s, Step Size: 0.00054 s, Pressure Iterations: 10
 Time Step:  99700, Simulation Time:     42.16 s, Step Size: 0.00054 s, Pressure Iterations: 10
 Time Step:  99800, Simulation Time:     42.22 s, Step Size: 0.00049 s, Pressure Iterations: 10
 Time Step:  99900, Simulation Time:     42.26 s, Step Size: 0.00048 s, Pressure Iterations: 10
 Time Step: 100000, Simulation Time:     42.31 s, Step Size: 0.00058 s, Pressure Iterations: 10
 Time Step: 100100, Simulation Time:     42.37 s, Step Size: 0.00058 s, Pressure Iterations: 10
 Time Step: 100200, Simulation Time:     42.43 s, Step Size: 0.00051 s, Pressure Iterations: 10
 Time Step: 100300, Simulation Time:     42.48 s, Step Size: 0.00056 s, Pressure Iterations: 10
 Time Step: 100400, Simulation Time:     42.53 s, Step Size: 0.00050 s, Pressure Iterations: 10
 Time Step: 100500, Simulation Time:     42.58 s, Step Size: 0.00061 s, Pressure Iterations: 10
 Time Step: 100600, Simulation Time:     42.64 s, Step Size: 0.00059 s, Pressure Iterations: 10
 Time Step: 100700, Simulation Time:     42.70 s, Step Size: 0.00058 s, Pressure Iterations: 10
 Time Step: 100800, Simulation Time:     42.76 s, Step Size: 0.00063 s, Pressure Iterations: 10
 Time Step: 100900, Simulation Time:     42.82 s, Step Size: 0.00062 s, Pressure Iterations: 10
 Time Step: 101000, Simulation Time:     42.88 s, Step Size: 0.00065 s, Pressure Iterations: 10
 Time Step: 101100, Simulation Time:     42.94 s, Step Size: 0.00053 s, Pressure Iterations: 10
 Time Step: 101200, Simulation Time:     43.00 s, Step Size: 0.00058 s, Pressure Iterations: 10
 Time Step: 101300, Simulation Time:     43.05 s, Step Size: 0.00057 s, Pressure Iterations: 10
 Time Step: 101400, Simulation Time:     43.11 s, Step Size: 0.00063 s, Pressure Iterations: 10
 Time Step: 101500, Simulation Time:     43.18 s, Step Size: 0.00068 s, Pressure Iterations: 10
 Time Step: 101600, Simulation Time:     43.24 s, Step Size: 0.00061 s, Pressure Iterations: 10
 Time Step: 101700, Simulation Time:     43.30 s, Step Size: 0.00059 s, Pressure Iterations: 10
 Time Step: 101800, Simulation Time:     43.36 s, Step Size: 0.00059 s, Pressure Iterations: 10
 Time Step: 101900, Simulation Time:     43.42 s, Step Size: 0.00058 s, Pressure Iterations: 10
 Time Step: 102000, Simulation Time:     43.47 s, Step Size: 0.00058 s, Pressure Iterations: 10
 Time Step: 102100, Simulation Time:     43.54 s, Step Size: 0.00064 s, Pressure Iterations: 10
 Time Step: 102200, Simulation Time:     43.60 s, Step Size: 0.00058 s, Pressure Iterations: 10
 Time Step: 102300, Simulation Time:     43.65 s, Step Size: 0.00046 s, Pressure Iterations: 10
 Time Step: 102400, Simulation Time:     43.71 s, Step Size: 0.00055 s, Pressure Iterations: 10
 Time Step: 102500, Simulation Time:     43.77 s, Step Size: 0.00067 s, Pressure Iterations: 10
 Time Step: 102600, Simulation Time:     43.84 s, Step Size: 0.00066 s, Pressure Iterations: 10
 Time Step: 102700, Simulation Time:     43.91 s, Step Size: 0.00066 s, Pressure Iterations: 10
 Time Step: 102800, Simulation Time:     43.98 s, Step Size: 0.00064 s, Pressure Iterations: 10
 Time Step: 102900, Simulation Time:     44.05 s, Step Size: 0.00063 s, Pressure Iterations: 10
 Time Step: 103000, Simulation Time:     44.11 s, Step Size: 0.00062 s, Pressure Iterations: 10
 Time Step: 103100, Simulation Time:     44.18 s, Step Size: 0.00072 s, Pressure Iterations: 10
 Time Step: 103200, Simulation Time:     44.25 s, Step Size: 0.00072 s, Pressure Iterations: 10
 Time Step: 103300, Simulation Time:     44.32 s, Step Size: 0.00071 s, Pressure Iterations: 10
 Time Step: 103400, Simulation Time:     44.39 s, Step Size: 0.00064 s, Pressure Iterations: 10
 Time Step: 103500, Simulation Time:     44.45 s, Step Size: 0.00064 s, Pressure Iterations: 10
 Time Step: 103600, Simulation Time:     44.52 s, Step Size: 0.00062 s, Pressure Iterations: 10
 Time Step: 103700, Simulation Time:     44.59 s, Step Size: 0.00068 s, Pressure Iterations: 10
 Time Step: 103800, Simulation Time:     44.66 s, Step Size: 0.00067 s, Pressure Iterations: 10
 Time Step: 103900, Simulation Time:     44.73 s, Step Size: 0.00073 s, Pressure Iterations: 10
 Time Step: 104000, Simulation Time:     44.80 s, Step Size: 0.00072 s, Pressure Iterations: 10
 Time Step: 104100, Simulation Time:     44.87 s, Step Size: 0.00084 s, Pressure Iterations: 10
 Time Step: 104200, Simulation Time:     44.95 s, Step Size: 0.00081 s, Pressure Iterations: 10
 Time Step: 104300, Simulation Time:     45.02 s, Step Size: 0.00069 s, Pressure Iterations: 10
 Time Step: 104400, Simulation Time:     45.09 s, Step Size: 0.00067 s, Pressure Iterations: 10
 Time Step: 104500, Simulation Time:     45.16 s, Step Size: 0.00073 s, Pressure Iterations: 10
 Time Step: 104600, Simulation Time:     45.23 s, Step Size: 0.00077 s, Pressure Iterations: 10
 Time Step: 104700, Simulation Time:     45.31 s, Step Size: 0.00077 s, Pressure Iterations: 10
 Time Step: 104800, Simulation Time:     45.39 s, Step Size: 0.00077 s, Pressure Iterations: 10
 Time Step: 104900, Simulation Time:     45.48 s, Step Size: 0.00083 s, Pressure Iterations: 10
 Time Step: 105000, Simulation Time:     45.55 s, Step Size: 0.00074 s, Pressure Iterations: 10
 Time Step: 105100, Simulation Time:     45.64 s, Step Size: 0.00080 s, Pressure Iterations: 10
 Time Step: 105200, Simulation Time:     45.72 s, Step Size: 0.00085 s, Pressure Iterations: 10
 Time Step: 105300, Simulation Time:     45.81 s, Step Size: 0.00094 s, Pressure Iterations: 10
 Time Step: 105400, Simulation Time:     45.90 s, Step Size: 0.00084 s, Pressure Iterations: 10
 Time Step: 105500, Simulation Time:     45.99 s, Step Size: 0.00090 s, Pressure Iterations: 9
 Time Step: 105600, Simulation Time:     46.08 s, Step Size: 0.00108 s, Pressure Iterations: 9
 Time Step: 105700, Simulation Time:     46.18 s, Step Size: 0.00097 s, Pressure Iterations: 8
 Time Step: 105800, Simulation Time:     46.28 s, Step Size: 0.00094 s, Pressure Iterations: 9
 Time Step: 105900, Simulation Time:     46.37 s, Step Size: 0.00101 s, Pressure Iterations: 9
 Time Step: 106000, Simulation Time:     46.48 s, Step Size: 0.00112 s, Pressure Iterations: 10
 Time Step: 106100, Simulation Time:     46.59 s, Step Size: 0.00110 s, Pressure Iterations: 9
 Time Step: 106200, Simulation Time:     46.72 s, Step Size: 0.00145 s, Pressure Iterations: 10
 Time Step: 106300, Simulation Time:     46.85 s, Step Size: 0.00129 s, Pressure Iterations: 10
 Time Step: 106400, Simulation Time:     46.98 s, Step Size: 0.00136 s, Pressure Iterations: 8
 Time Step: 106500, Simulation Time:     47.13 s, Step Size: 0.00165 s, Pressure Iterations: 7
 Time Step: 106600, Simulation Time:     47.31 s, Step Size: 0.00181 s, Pressure Iterations: 10
 Time Step: 106700, Simulation Time:     47.50 s, Step Size: 0.00197 s, Pressure Iterations: 10
 Time Step: 106800, Simulation Time:     47.68 s, Step Size: 0.00193 s, Pressure Iterations: 6
 Time Step: 106900, Simulation Time:     47.89 s, Step Size: 0.00189 s, Pressure Iterations: 7
 Time Step: 107000, Simulation Time:     48.10 s, Step Size: 0.00229 s, Pressure Iterations: 7
 Time Step: 107100, Simulation Time:     48.32 s, Step Size: 0.00205 s, Pressure Iterations: 6
 Time Step: 107200, Simulation Time:     48.53 s, Step Size: 0.00205 s, Pressure Iterations: 5
 Time Step: 107300, Simulation Time:     48.73 s, Step Size: 0.00205 s, Pressure Iterations: 10
 Time Step: 107400, Simulation Time:     48.94 s, Step Size: 0.00226 s, Pressure Iterations: 5
 Time Step: 107500, Simulation Time:     49.17 s, Step Size: 0.00226 s, Pressure Iterations: 4
 Time Step: 107600, Simulation Time:     49.39 s, Step Size: 0.00202 s, Pressure Iterations: 4
 Time Step: 107700, Simulation Time:     49.59 s, Step Size: 0.00202 s, Pressure Iterations: 10
 Time Step: 107800, Simulation Time:     49.80 s, Step Size: 0.00202 s, Pressure Iterations: 10
 Time Step: 107900, Simulation Time:     50.00 s, Step Size: 0.00202 s, Pressure Iterations: 3
 Time Step: 108000, Simulation Time:     50.20 s, Step Size: 0.00202 s, Pressure Iterations: 2
 Time Step: 108100, Simulation Time:     50.40 s, Step Size: 0.00202 s, Pressure Iterations: 2
 Time Step: 108200, Simulation Time:     50.61 s, Step Size: 0.00202 s, Pressure Iterations: 10
 Time Step: 108300, Simulation Time:     50.81 s, Step Size: 0.00202 s, Pressure Iterations: 8
 Time Step: 108400, Simulation Time:     51.01 s, Step Size: 0.00202 s, Pressure Iterations: 4
 Time Step: 108500, Simulation Time:     51.21 s, Step Size: 0.00202 s, Pressure Iterations: 9
 Time Step: 108600, Simulation Time:     51.42 s, Step Size: 0.00202 s, Pressure Iterations: 6
 Time Step: 108700, Simulation Time:     51.62 s, Step Size: 0.00202 s, Pressure Iterations: 10
 Time Step: 108800, Simulation Time:     51.82 s, Step Size: 0.00202 s, Pressure Iterations: 2
 Time Step: 108900, Simulation Time:     52.02 s, Step Size: 0.00202 s, Pressure Iterations: 10
 Time Step: 109000, Simulation Time:     52.23 s, Step Size: 0.00202 s, Pressure Iterations: 3
 Time Step: 109100, Simulation Time:     52.43 s, Step Size: 0.00202 s, Pressure Iterations: 10
 Time Step: 109200, Simulation Time:     52.63 s, Step Size: 0.00202 s, Pressure Iterations: 3
 Time Step: 109300, Simulation Time:     52.83 s, Step Size: 0.00202 s, Pressure Iterations: 6
 Time Step: 109400, Simulation Time:     53.04 s, Step Size: 0.00202 s, Pressure Iterations: 2
 Time Step: 109500, Simulation Time:     53.24 s, Step Size: 0.00202 s, Pressure Iterations: 3
 Time Step: 109600, Simulation Time:     53.44 s, Step Size: 0.00202 s, Pressure Iterations: 2
 Time Step: 109700, Simulation Time:     53.64 s, Step Size: 0.00202 s, Pressure Iterations: 10
 Time Step: 109800, Simulation Time:     53.84 s, Step Size: 0.00202 s, Pressure Iterations: 10
 Time Step: 109900, Simulation Time:     54.05 s, Step Size: 0.00202 s, Pressure Iterations: 6
 Time Step: 110000, Simulation Time:     54.25 s, Step Size: 0.00202 s, Pressure Iterations: 3
 Time Step: 110100, Simulation Time:     54.45 s, Step Size: 0.00202 s, Pressure Iterations: 9
 Time Step: 110200, Simulation Time:     54.65 s, Step Size: 0.00202 s, Pressure Iterations: 10
 Time Step: 110300, Simulation Time:     54.86 s, Step Size: 0.00202 s, Pressure Iterations: 3
 Time Step: 110400, Simulation Time:     55.06 s, Step Size: 0.00202 s, Pressure Iterations: 6
 Time Step: 110500, Simulation Time:     55.26 s, Step Size: 0.00202 s, Pressure Iterations: 5
 Time Step: 110600, Simulation Time:     55.46 s, Step Size: 0.00202 s, Pressure Iterations: 10
 Time Step: 110700, Simulation Time:     55.67 s, Step Size: 0.00202 s, Pressure Iterations: 3
 Time Step: 110800, Simulation Time:     55.87 s, Step Size: 0.00202 s, Pressure Iterations: 3
 Time Step: 110900, Simulation Time:     56.07 s, Step Size: 0.00202 s, Pressure Iterations: 5
 Time Step: 111000, Simulation Time:     56.27 s, Step Size: 0.00202 s, Pressure Iterations: 2
 Time Step: 111100, Simulation Time:     56.48 s, Step Size: 0.00202 s, Pressure Iterations: 7
 Time Step: 111200, Simulation Time:     56.68 s, Step Size: 0.00202 s, Pressure Iterations: 10
 Time Step: 111300, Simulation Time:     56.88 s, Step Size: 0.00202 s, Pressure Iterations: 2
 Time Step: 111400, Simulation Time:     57.08 s, Step Size: 0.00202 s, Pressure Iterations: 4
 Time Step: 111500, Simulation Time:     57.29 s, Step Size: 0.00202 s, Pressure Iterations: 3
 Time Step: 111600, Simulation Time:     57.49 s, Step Size: 0.00202 s, Pressure Iterations: 2
 Time Step: 111700, Simulation Time:     57.69 s, Step Size: 0.00202 s, Pressure Iterations: 3
 Time Step: 111800, Simulation Time:     57.88 s, Step Size: 0.00182 s, Pressure Iterations: 10
 Time Step: 111900, Simulation Time:     58.06 s, Step Size: 0.00182 s, Pressure Iterations: 3
 Time Step: 112000, Simulation Time:     58.24 s, Step Size: 0.00182 s, Pressure Iterations: 10
 Time Step: 112100, Simulation Time:     58.42 s, Step Size: 0.00182 s, Pressure Iterations: 2
 Time Step: 112200, Simulation Time:     58.61 s, Step Size: 0.00182 s, Pressure Iterations: 3
 Time Step: 112300, Simulation Time:     58.79 s, Step Size: 0.00182 s, Pressure Iterations: 2
 Time Step: 112400, Simulation Time:     58.97 s, Step Size: 0.00182 s, Pressure Iterations: 10
 Time Step: 112500, Simulation Time:     59.15 s, Step Size: 0.00182 s, Pressure Iterations: 10
 Time Step: 112600, Simulation Time:     59.33 s, Step Size: 0.00182 s, Pressure Iterations: 10
 Time Step: 112700, Simulation Time:     59.51 s, Step Size: 0.00182 s, Pressure Iterations: 2
 Time Step: 112800, Simulation Time:     59.70 s, Step Size: 0.00182 s, Pressure Iterations: 10
 Time Step: 112900, Simulation Time:     59.88 s, Step Size: 0.00182 s, Pressure Iterations: 2
 Time Step: 113000, Simulation Time:     60.06 s, Step Size: 0.00182 s, Pressure Iterations: 3
 Time Step: 113100, Simulation Time:     60.24 s, Step Size: 0.00182 s, Pressure Iterations: 2
 Time Step: 113200, Simulation Time:     60.42 s, Step Size: 0.00182 s, Pressure Iterations: 3
 Time Step: 113300, Simulation Time:     60.61 s, Step Size: 0.00182 s, Pressure Iterations: 2
 Time Step: 113400, Simulation Time:     60.79 s, Step Size: 0.00182 s, Pressure Iterations: 9
 Time Step: 113500, Simulation Time:     60.97 s, Step Size: 0.00182 s, Pressure Iterations: 9
 Time Step: 113600, Simulation Time:     61.15 s, Step Size: 0.00182 s, Pressure Iterations: 10
 Time Step: 113700, Simulation Time:     61.34 s, Step Size: 0.00200 s, Pressure Iterations: 6
 Time Step: 113800, Simulation Time:     61.54 s, Step Size: 0.00200 s, Pressure Iterations: 10
 Time Step: 113900, Simulation Time:     61.74 s, Step Size: 0.00180 s, Pressure Iterations: 10
 Time Step: 114000, Simulation Time:     61.92 s, Step Size: 0.00180 s, Pressure Iterations: 6
 Time Step: 114100, Simulation Time:     62.10 s, Step Size: 0.00180 s, Pressure Iterations: 7
 Time Step: 114200, Simulation Time:     62.28 s, Step Size: 0.00180 s, Pressure Iterations: 9
 Time Step: 114300, Simulation Time:     62.46 s, Step Size: 0.00180 s, Pressure Iterations: 2
 Time Step: 114400, Simulation Time:     62.64 s, Step Size: 0.00180 s, Pressure Iterations: 2
 Time Step: 114500, Simulation Time:     62.82 s, Step Size: 0.00180 s, Pressure Iterations: 3
 Time Step: 114600, Simulation Time:     63.00 s, Step Size: 0.00180 s, Pressure Iterations: 3
 Time Step: 114700, Simulation Time:     63.18 s, Step Size: 0.00180 s, Pressure Iterations: 10
 Time Step: 114800, Simulation Time:     63.36 s, Step Size: 0.00180 s, Pressure Iterations: 10
 Time Step: 114900, Simulation Time:     63.54 s, Step Size: 0.00180 s, Pressure Iterations: 10
 Time Step: 115000, Simulation Time:     63.72 s, Step Size: 0.00180 s, Pressure Iterations: 2
 Time Step: 115100, Simulation Time:     63.90 s, Step Size: 0.00180 s, Pressure Iterations: 7
 Time Step: 115200, Simulation Time:     64.08 s, Step Size: 0.00180 s, Pressure Iterations: 2
 Time Step: 115300, Simulation Time:     64.26 s, Step Size: 0.00180 s, Pressure Iterations: 6
 Time Step: 115400, Simulation Time:     64.44 s, Step Size: 0.00180 s, Pressure Iterations: 10
 Time Step: 115500, Simulation Time:     64.62 s, Step Size: 0.00180 s, Pressure Iterations: 10
 Time Step: 115600, Simulation Time:     64.80 s, Step Size: 0.00180 s, Pressure Iterations: 6
 Time Step: 115700, Simulation Time:     64.98 s, Step Size: 0.00180 s, Pressure Iterations: 4
 Time Step: 115712, Simulation Time:     65.00 s, Step Size: 0.00065 s, Pressure Iterations: 10


 Time Stepping Wall Clock Time (s):   133751.957
 Total Elapsed Wall Clock Time (s):   133773.127

STOP: FDS completed successfully (CHID: FM_15cm_Burner_C2H4_5mm)
