
 Fire Dynamics Simulator

 Current Date     : August 20, 2023  17:32:37
 Revision         : FDS-6.8.0-564-g879930a-master
 Revision Date    : Wed Aug 16 13:01:02 2023 -0400
 Compiler         : ifort version 2021.7.1
 Compilation Date : Aug 16, 2023 16:46:52

 MPI Enabled;    Number of MPI Processes:     208
 OpenMP Disabled

 MPI version: 3.1
 MPI library version: Intel(R) MPI Library 2021.7 for Linux* OS


 Job TITLE        : LOI test for FM 15 cm burner
 Job ID string    : FM_15cm_Burner_C3H8_5mm


 Miscellaneous Parameters

   Simulation Start Time (s)          0.0
   Simulation End Time (s)           65.0
   Background Pressure (Pa)     101325.00
   Ambient Temperature (C)          20.00

   3D Cartesian
   LES Calculation
   Eddy Viscosity Model:  Deardorff (C_DEARDORFF = 0.10)
   Surface side wall Eddy Viscosity Model:  WALE (C_WALE = 0.60)
   Surface wall Eddy Viscosity Model:  WALE (C_WALE = 0.60)
   Surface burner Eddy Viscosity Model:  WALE (C_WALE = 0.60)
   Surface coflow Eddy Viscosity Model:  WALE (C_WALE = 0.60)
   Surface pilot Eddy Viscosity Model:  WALE (C_WALE = 0.60)
   Turbulent Prandtl Number:         0.50
   Turbulent Schmidt Number:         0.50


 Pressure solver information

   Solver:                          ULMAT
   Velocity tolerance (m/s):    2.500E-03
   Press eqn res tol (1/s^2):   8.000E+05
   Max pressure iterations:            10


 Mass Fraction Transformation Matrix to Convert Species Mixtures (Columns) to Primitive Species (Rows)

                         AIR       PRODUCTS  INTERMED  PRODUCTS  NITROGEN  PROPANE   PILOT FU
   OXYGEN                0.230997  0.000000  0.000000  0.000000  0.000000  0.000000  0.000000
   CARBON DIOXIDE        0.000591  0.198962  0.000539  0.176821  0.000000  0.000000  0.000000
   WATER VAPOR           0.005941  0.086784  0.150185  0.105270  0.000000  0.000000  0.000000
   CARBON MONOXIDE       0.000000  0.000000  0.143493  0.000366  0.000000  0.000000  0.000000
   SOOT                  0.000000  0.000000  0.010858  0.001586  0.000000  0.000000  0.000000
   HYDROGEN              0.000000  0.000000  0.000000  0.000000  0.000000  0.000000  0.000000
   HYDROGEN CYANIDE      0.000000  0.000000  0.000000  0.000000  0.000000  0.000000  0.000000
   NITROGEN              0.762470  0.714254  0.694925  0.715957  1.000000  0.000000  0.000000
   PROPANE               0.000000  0.000000  0.000000  0.000000  0.000000  1.000000  0.000000
   ETHYLENE              0.000000  0.000000  0.000000  0.000000  0.000000  0.000000  1.000000


 Primitive Species Information

   OXYGEN
   Gas Species
   Molecular Weight (g/mol)                31.99880
   Ambient Density (kg/m^3)                1.330
           Enthalpy of Formation (J/kg)  0.000E+00

   CARBON DIOXIDE
   Gas Species
   Molecular Weight (g/mol)                44.00950
   Ambient Density (kg/m^3)                1.830
           Enthalpy of Formation (J/kg) -8.941E+06

   WATER VAPOR
   Gas Species
   Molecular Weight (g/mol)                18.01528
   Ambient Density (kg/m^3)                0.749
           Enthalpy of Formation (J/kg) -1.342E+07

   CARBON MONOXIDE
   Gas Species
   Molecular Weight (g/mol)                28.01010
   Ambient Density (kg/m^3)                1.164
           Enthalpy of Formation (J/kg) -3.946E+06

   SOOT
   Gas Species
   Molecular Weight (g/mol)                12.01070
   Ambient Density (kg/m^3)                0.499
           Enthalpy of Formation (J/kg)  0.000E+00

   HYDROGEN
   Gas Species
   Molecular Weight (g/mol)                 2.01588
   Ambient Density (kg/m^3)                0.084
           Enthalpy of Formation (J/kg)  0.000E+00

   HYDROGEN CYANIDE
   Gas Species
   Molecular Weight (g/mol)                27.02534
   Ambient Density (kg/m^3)                1.123
           Enthalpy of Formation (J/kg)  4.924E+06

   NITROGEN
   Gas Species
   Molecular Weight (g/mol)                28.01340
   Ambient Density (kg/m^3)                1.165
           Enthalpy of Formation (J/kg)  0.000E+00

   PROPANE
   Gas Species
   Molecular Weight (g/mol)                44.09562
   Ambient Density (kg/m^3)                1.833
           Enthalpy of Formation (J/kg) -2.374E+06

   ETHYLENE
   Gas Species
   Molecular Weight (g/mol)                28.05316
   Ambient Density (kg/m^3)                1.166
           Enthalpy of Formation (J/kg)  1.871E+06


 Tracked (Lumped) Species Information

   AIR
   Molecular Weight (g/mol)            28.75198
   Ambient Density (kg/m^3)            1.195
   Initial Mass Fraction               1.000
   Enthalpy of Formation (J/kg)     -8.504E+04

   Sub Species                    Mass Fraction     Mole Fraction
   OXYGEN                         2.309974E-01      2.075588E-01
   CARBON DIOXIDE                 5.914650E-04      3.864118E-04
   WATER VAPOR                    5.941209E-03      9.482037E-03
   NITROGEN                       7.624699E-01      7.825727E-01
 
     Viscosity (kg/m/s) Ambient,  293 K:  1.796E-05
                                  500 K:  2.612E-05
                                 1000 K:  4.125E-05
                                 1500 K:  5.371E-05
                                 2000 K:  6.476E-05
   Therm. Cond. (W/m/K) Ambient,  293 K:  2.556E-02
                                  500 K:  3.814E-02
                                 1000 K:  6.686E-02
                                 1500 K:  9.249E-02
                                 2000 K:  1.153E-01
        Enthalpy (J/kg) Ambient,  293 K: -9.012E+04
                                  500 K:  1.222E+05
                                 1000 K:  6.721E+05
                                 1500 K:  1.270E+06
                                 2000 K:  1.896E+06
    Spec. Heat (J/kg/K) Ambient,  293 K:  1.016E+03
                                  500 K:  1.042E+03
                                 1000 K:  1.156E+03
                                 1500 K:  1.229E+03
                                 2000 K:  1.270E+03
   Diff. Coeff. (m^2/s) Ambient,  293 K:  1.991E-05
                                  500 K:  4.961E-05
                                 1000 K:  1.580E-04
                                 1500 K:  3.095E-04
                                 2000 K:  4.984E-04
 Gibbs Energy Amb. (kJ/mol),  293 K: -5.873E+01
                                  500 K: -1.007E+02
                                 1000 K: -2.117E+02
                                 1500 K: -3.312E+02
                                 2000 K: -4.568E+02

   PRODUCTS
   Molecular Weight (g/mol)            28.70676
   Ambient Density (kg/m^3)            1.193
   Initial Mass Fraction               0.000
   Enthalpy of Formation (J/kg)     -2.944E+06

   Sub Species                    Mass Fraction     Mole Fraction
   CARBON DIOXIDE                 1.989619E-01      1.297800E-01
   WATER VAPOR                    8.678371E-02      1.382870E-01
   CARBON MONOXIDE                0.000000E+00      0.000000E+00
   SOOT                           0.000000E+00      0.000000E+00
   HYDROGEN CYANIDE               0.000000E+00      0.000000E+00
   NITROGEN                       7.142544E-01      7.319330E-01
 
     Viscosity (kg/m/s) Ambient,  293 K:  1.623E-05
                                  500 K:  2.403E-05
                                 1000 K:  3.903E-05
                                 1500 K:  5.145E-05
                                 2000 K:  6.239E-05
   Therm. Cond. (W/m/K) Ambient,  293 K:  2.339E-02
                                  500 K:  3.614E-02
                                 1000 K:  6.673E-02
                                 1500 K:  9.529E-02
                                 2000 K:  1.208E-01
        Enthalpy (J/kg) Ambient,  293 K: -2.949E+06
                                  500 K: -2.722E+06
                                 1000 K: -2.120E+06
                                 1500 K: -1.454E+06
                                 2000 K: -7.474E+05
    Spec. Heat (J/kg/K) Ambient,  293 K:  1.071E+03
                                  500 K:  1.126E+03
                                 1000 K:  1.278E+03
                                 1500 K:  1.380E+03
                                 2000 K:  1.439E+03
   Diff. Coeff. (m^2/s) Ambient,  293 K:  1.940E-05
                                  500 K:  4.914E-05
                                 1000 K:  1.584E-04
                                 1500 K:  3.114E-04
                                 2000 K:  5.021E-04
 Gibbs Energy Amb. (kJ/mol),  293 K: -1.566E+02
                                  500 K: -1.990E+02
                                 1000 K: -3.118E+02
                                 1500 K: -4.344E+02
                                 2000 K: -5.638E+02

   INTERMEDIATE PRODUCTS 2
   Molecular Weight (g/mol)            25.52154
   Ambient Density (kg/m^3)            1.061
   Initial Mass Fraction               0.000
   Enthalpy of Formation (J/kg)     -2.587E+06

   Sub Species                    Mass Fraction     Mole Fraction
   CARBON DIOXIDE                 5.390686E-04      3.126111E-04
   WATER VAPOR                    1.501847E-01      2.127608E-01
   CARBON MONOXIDE                1.434934E-01      1.307447E-01
   SOOT                           1.085820E-02      2.307259E-02
   HYDROGEN                       0.000000E+00      0.000000E+00
   HYDROGEN CYANIDE               0.000000E+00      0.000000E+00
   NITROGEN                       6.949246E-01      6.331093E-01
 
     Viscosity (kg/m/s) Ambient,  293 K:  1.606E-05
                                  500 K:  2.370E-05
                                 1000 K:  3.872E-05
                                 1500 K:  5.135E-05
                                 2000 K:  6.250E-05
   Therm. Cond. (W/m/K) Ambient,  293 K:  2.409E-02
                                  500 K:  3.668E-02
                                 1000 K:  6.807E-02
                                 1500 K:  9.849E-02
                                 2000 K:  1.261E-01
        Enthalpy (J/kg) Ambient,  293 K: -2.593E+06
                                  500 K: -2.350E+06
                                 1000 K: -1.716E+06
                                 1500 K: -1.012E+06
                                 2000 K: -2.617E+05
    Spec. Heat (J/kg/K) Ambient,  293 K:  1.160E+03
                                  500 K:  1.194E+03
                                 1000 K:  1.345E+03
                                 1500 K:  1.461E+03
                                 2000 K:  1.533E+03
   Diff. Coeff. (m^2/s) Ambient,  293 K:  2.022E-05
                                  500 K:  5.149E-05
                                 1000 K:  1.667E-04
                                 1500 K:  3.281E-04
                                 2000 K:  5.294E-04
 Gibbs Energy Amb. (kJ/mol),  293 K: -1.081E+02
                                  500 K: -1.491E+02
                                 1000 K: -2.579E+02
                                 1500 K: -3.755E+02
                                 2000 K: -4.992E+02

   PRODUCTS 2
   Molecular Weight (g/mol)            28.11836
   Ambient Density (kg/m^3)            1.169
   Initial Mass Fraction               0.000
   Enthalpy of Formation (J/kg)     -2.996E+06

   Sub Species                    Mass Fraction     Mole Fraction
   CARBON DIOXIDE                 1.768208E-01      1.129736E-01
   WATER VAPOR                    1.052703E-01      1.643065E-01
   CARBON MONOXIDE                3.660192E-04      3.674339E-04
   SOOT                           1.586083E-03      3.713194E-03
   HYDROGEN CYANIDE               0.000000E+00      0.000000E+00
   NITROGEN                       7.159568E-01      7.186393E-01
 
     Viscosity (kg/m/s) Ambient,  293 K:  1.611E-05
                                  500 K:  2.388E-05
                                 1000 K:  3.892E-05
                                 1500 K:  5.142E-05
                                 2000 K:  6.243E-05
   Therm. Cond. (W/m/K) Ambient,  293 K:  2.340E-02
                                  500 K:  3.617E-02
                                 1000 K:  6.712E-02
                                 1500 K:  9.631E-02
                                 2000 K:  1.225E-01
        Enthalpy (J/kg) Ambient,  293 K: -3.001E+06
                                  500 K: -2.770E+06
                                 1000 K: -2.159E+06
                                 1500 K: -1.481E+06
                                 2000 K: -7.612E+05
    Spec. Heat (J/kg/K) Ambient,  293 K:  1.090E+03
                                  500 K:  1.143E+03
                                 1000 K:  1.298E+03
                                 1500 K:  1.405E+03
                                 2000 K:  1.468E+03
   Diff. Coeff. (m^2/s) Ambient,  293 K:  1.953E-05
                                  500 K:  4.959E-05
                                 1000 K:  1.602E-04
                                 1500 K:  3.150E-04
                                 2000 K:  5.081E-04
 Gibbs Energy Amb. (kJ/mol),  293 K: -1.522E+02
                                  500 K: -1.943E+02
                                 1000 K: -3.066E+02
                                 1500 K: -4.286E+02
                                 2000 K: -5.574E+02

   NITROGEN
   Molecular Weight (g/mol)            28.01340
   Ambient Density (kg/m^3)            1.165
   Initial Mass Fraction               0.000
   Enthalpy of Formation (J/kg)      0.000E+00

   Sub Species                    Mass Fraction     Mole Fraction
   NITROGEN                       1.000000E+00      1.000000E+00
 
     Viscosity (kg/m/s) Ambient,  293 K:  1.740E-05
                                  500 K:  2.512E-05
                                 1000 K:  3.948E-05
                                 1500 K:  5.136E-05
                                 2000 K:  6.190E-05
   Therm. Cond. (W/m/K) Ambient,  293 K:  2.547E-02
                                  500 K:  3.736E-02
                                 1000 K:  6.491E-02
                                 1500 K:  8.998E-02
                                 2000 K:  1.120E-01
        Enthalpy (J/kg) Ambient,  293 K: -5.199E+03
                                  500 K:  2.110E+05
                                 1000 K:  7.661E+05
                                 1500 K:  1.371E+06
                                 2000 K:  2.004E+06
    Spec. Heat (J/kg/K) Ambient,  293 K:  1.040E+03
                                  500 K:  1.056E+03
                                 1000 K:  1.167E+03
                                 1500 K:  1.244E+03
                                 2000 K:  1.284E+03
   Diff. Coeff. (m^2/s) Ambient,  293 K:  1.986E-05
                                  500 K:  4.934E-05
                                 1000 K:  1.568E-04
                                 1500 K:  3.070E-04
                                 2000 K:  4.944E-04
 Gibbs Energy Amb. (kJ/mol),  293 K: -5.614E+01
                                  500 K: -9.746E+01
                                 1000 K: -2.067E+02
                                 1500 K: -3.244E+02
                                 2000 K: -4.480E+02

   PROPANE
   Molecular Weight (g/mol)            44.09562
   Ambient Density (kg/m^3)            1.833
   Initial Mass Fraction               0.000
   Enthalpy of Formation (J/kg)     -2.374E+06

   Sub Species                    Mass Fraction     Mole Fraction
   PROPANE                        1.000000E+00      1.000000E+00
 
     Viscosity (kg/m/s) Ambient,  293 K:  8.079E-06
                                  500 K:  1.310E-05
                                 1000 K:  2.234E-05
                                 1500 K:  2.955E-05
                                 2000 K:  3.574E-05
   Therm. Cond. (W/m/K) Ambient,  293 K:  1.821E-02
                                  500 K:  4.581E-02
                                 1000 K:  1.212E-01
                                 1500 K:  1.890E-01
                                 2000 K:  2.465E-01
        Enthalpy (J/kg) Ambient,  293 K: -2.382E+06
                                  500 K: -1.946E+06
                                 1000 K: -2.769E+05
                                 1500 K:  1.900E+06
                                 2000 K:  4.336E+06
    Spec. Heat (J/kg/K) Ambient,  293 K:  1.646E+03
                                  500 K:  2.553E+03
                                 1000 K:  3.960E+03
                                 1500 K:  4.669E+03
                                 2000 K:  5.034E+03
   Diff. Coeff. (m^2/s) Ambient,  293 K:  1.110E-05
                                  500 K:  2.862E-05
                                 1000 K:  9.316E-05
                                 1500 K:  1.833E-04
                                 2000 K:  2.954E-04
 Gibbs Energy Amb. (kJ/mol),  293 K: -1.839E+02
                                  500 K: -2.447E+02
                                 1000 K: -4.295E+02
                                 1500 K: -6.584E+02
                                 2000 K: -9.217E+02

   PILOT FUEL
   Molecular Weight (g/mol)            28.05316
   Ambient Density (kg/m^3)            1.166
   Initial Mass Fraction               0.000
   Enthalpy of Formation (J/kg)      1.871E+06

   Sub Species                    Mass Fraction     Mole Fraction
   ETHYLENE                       1.000000E+00      1.000000E+00
 
     Viscosity (kg/m/s) Ambient,  293 K:  9.987E-06
                                  500 K:  1.608E-05
                                 1000 K:  2.724E-05
                                 1500 K:  3.595E-05
                                 2000 K:  4.345E-05
   Therm. Cond. (W/m/K) Ambient,  293 K:  1.819E-02
                                  500 K:  4.313E-02
                                 1000 K:  1.099E-01
                                 1500 K:  1.699E-01
                                 2000 K:  2.210E-01
        Enthalpy (J/kg) Ambient,  293 K:  1.864E+06
                                  500 K:  2.252E+06
                                 1000 K:  3.678E+06
                                 1500 K:  5.511E+06
                                 2000 K:  7.554E+06
    Spec. Heat (J/kg/K) Ambient,  293 K:  1.511E+03
                                  500 K:  2.227E+03
                                 1000 K:  3.348E+03
                                 1500 K:  3.922E+03
                                 2000 K:  4.221E+03
   Diff. Coeff. (m^2/s) Ambient,  293 K:  1.552E-05
                                  500 K:  3.994E-05
                                 1000 K:  1.298E-04
                                 1500 K:  2.553E-04
                                 2000 K:  4.114E-04
 Gibbs Energy Amb. (kJ/mol),  293 K: -1.176E+01
                                  500 K: -5.994E+01
                                 1000 K: -1.972E+02
                                 1500 K: -3.582E+02
                                 2000 K: -5.377E+02


 Gas Phase Reaction Information

   Reaction 1

      Priority:                                                               1

      Fuel                                           Heat of Combustion (kJ/kg)
      PILOT FUEL                                                     47166.5937

      Primitive Species Stoich. Coeff.
      Species ID                                                          Molar
      OXYGEN                                                          -3.000000
      CARBON DIOXIDE                                                   2.000000
      WATER VAPOR                                                      2.000000
      ETHYLENE                                                        -1.000000

      Tracked (Lumped) Species Stoich. Coeff.
      Species ID                                             Molar         Mass
      AIR                                               -14.453734   -14.813786
      PRODUCTS                                           15.453734    15.813786
      PILOT FUEL                                         -1.000000    -1.000000

      Reaction Kinetics

      Fast chemistry

      ODE Solver:  EXPLICIT EULER

      Extinction Model:  EXTINCTION 2
      Auto-Ignition Temperature (C):            -273.0
      Critical Flame Temperature (C):           1427.0

      Prescribed Radiative Fraction:             0.000

   Reaction 2

      Priority:                                                               1

      Fuel                                           Heat of Combustion (kJ/kg)
      PROPANE                                                        25954.7037
      2-step reaction,  Total Heat of Combustion                     45422.1636

      Primitive Species Stoich. Coeff.
      Species ID                                                          Molar
      OXYGEN                                                          -3.275000
      WATER VAPOR                                                      4.000000
      CARBON MONOXIDE                                                  2.550000
      SOOT                                                             0.450000
      PROPANE                                                         -1.000000

      Tracked (Lumped) Species Stoich. Coeff.
      Species ID                                             Molar         Mass
      AIR                                               -15.778660   -10.288273
      INTERMEDIATE PRODUCTS 2                            19.503660    11.288273
      PROPANE                                            -1.000000    -1.000000

      Reaction Kinetics

      Fast chemistry

      ODE Solver:  EXPLICIT EULER

      Extinction Model:  EXTINCTION 2
      Auto-Ignition Temperature (C):             450.0
      Critical Flame Temperature (C):           1447.0

      Prescribed Radiative Fraction:             0.000

   Reaction 3

      Priority:                                                               2

      Fuel                                           Heat of Combustion (kJ/kg)
      INTERMEDIATE PRODUCTS 2                                         1724.5739

      Primitive Species Stoich. Coeff.
      Species ID                                                          Molar
      OXYGEN                                                          -0.083309
      CARBON DIOXIDE                                                   0.148439
      CARBON MONOXIDE                                                 -0.130260
      SOOT                                                            -0.018178

      Tracked (Lumped) Species Stoich. Coeff.
      Species ID                                             Molar         Mass
      AIR                                                -0.401373    -0.452178
      INTERMEDIATE PRODUCTS 2                            -1.000000    -1.000000
      PRODUCTS 2                                          1.318065     1.452178

      Reaction Kinetics

      Fast chemistry

      ODE Solver:  EXPLICIT EULER

      Prescribed Radiative Fraction:             0.000


 Material Information

   1 sand
     Emissivity:                                  0.900
     Density (kg/m3):                            1500.0
     Specific Heat (kJ/kg/K) Ambient,  293 K:  8.300E-01
                                       350 K:  8.300E-01
                                       500 K:  8.300E-01
                                       800 K:  8.300E-01
     Therm. Cond. (W/m/K) Ambient,     293 K:  2.500E-01
                                       350 K:  2.500E-01
                                       500 K:  2.500E-01
                                       800 K:  2.500E-01
     Enthalpy (kJ/kg) Ambient,         293 K:  2.432E+02
                                       350 K:  2.905E+02
                                       500 K:  4.150E+02
                                       800 K:  6.640E+02


 Surface Conditions

   0 INERT

   1 side wall (DEFAULT)

   2 wall

   3 burner
     Material List
          1  sand
     Layer  1
        Thickness   (m):  0.02540
        Density (kg/m3):  1500.00
        sand, Mass fraction:    1.00
     Reaction products considered from the first  0.50 layers.
     Total surface density    38.100 kg/m2
     Solid Phase Node, Layer, Coordinates(m):
                    0      1       0.0000000
                    1      1       0.0004097
                    2      1       0.0012290
                    3      1       0.0028677
                    4      1       0.0061452
                    5      1       0.0127000
                    6      1       0.0192548
                    7      1       0.0225323
                    8      1       0.0241710
                    9      1       0.0249903
                   10      1       0.0254000
     Exposed Backing
     PROPANE Mass Flux (kg/s/m2)   1.214E-02

   4 coflow
     AIR Mass Flux (kg/s/m2)   2.230E-01
     NITROGEN Mass Flux (kg/s/m2)   3.600E-01

   5 pilot
     PILOT FUEL Mass Flux (kg/s/m2)   2.197E-03
     Convection length scale (m)  9.400E-03

   6 OPEN
     Passive Vent to Atmosphere

   7 MIRROR
     Symmetry Plane

   8 INTERPOLATED

   9 PERIODIC

  10 HVAC

  11 MASSLESS TRACER

  12 DROPLET

  13 MASSLESS TARGET

  14 PERIODIC FLOW ONLY


 Lagrangian Particle Classes

   1 ignitor
     SURFace ID: pilot
     # Reals: 88
     # Integers: 24
     # Logicals: 5


 Cut-off Density and Temperature

    Minimum Temperature:  -259.1 C
    Maximum Temperature:  2726.8 C
    Minimum Density:  1.195E-01 kg/m3
    Maximum Density:  7.677E+01 kg/m3


 Device Information

   1 ID: XO2
     QUANTITY: VOLUME FRACTION
     Species ID: OXYGEN
     Coordinates (X,Y,Z):    1.520000E-01   -5.000000E-05   -1.490000E-01
     TEMPORAL STATISTIC: INSTANT VALUE


 Radiation Model Information

   Number of control angles  104
   Time step increment         3
   Angle increment             5
   Theta band N_phi   Solid angle
     1:        4     0.120
     2:       12     0.114
     3:       16     0.127
     4:       20     0.120
     5:       20     0.120
     6:       16     0.127
     7:       12     0.114
     8:        4     0.120
   Using gray gas absorption.
   Mean beam length  1.000E-01 m
 
 

 Run Time Diagnostics

 Time Step:      1, Simulation Time:    0.0060 s, Step Size: 0.00595 s, Pressure Iterations: 10
 Time Step:      2, Simulation Time:     0.012 s, Step Size: 0.00595 s, Pressure Iterations: 10
 Time Step:      3, Simulation Time:     0.018 s, Step Size: 0.00595 s, Pressure Iterations: 10
 Time Step:      4, Simulation Time:     0.024 s, Step Size: 0.00595 s, Pressure Iterations: 10
 Time Step:      5, Simulation Time:     0.030 s, Step Size: 0.00595 s, Pressure Iterations: 10
 Time Step:      6, Simulation Time:     0.034 s, Step Size: 0.00447 s, Pressure Iterations: 10
 Time Step:      7, Simulation Time:     0.039 s, Step Size: 0.00447 s, Pressure Iterations: 10
 Time Step:      8, Simulation Time:     0.043 s, Step Size: 0.00447 s, Pressure Iterations: 10
 Time Step:      9, Simulation Time:     0.048 s, Step Size: 0.00447 s, Pressure Iterations: 10
 Time Step:     10, Simulation Time:     0.052 s, Step Size: 0.00447 s, Pressure Iterations: 10
 Time Step:     20, Simulation Time:     0.093 s, Step Size: 0.00402 s, Pressure Iterations: 10
 Time Step:     30, Simulation Time:      0.14 s, Step Size: 0.00284 s, Pressure Iterations: 10
 Time Step:     40, Simulation Time:      0.16 s, Step Size: 0.00133 s, Pressure Iterations: 10
 Time Step:     50, Simulation Time:      0.17 s, Step Size: 0.00133 s, Pressure Iterations: 10
 Time Step:     60, Simulation Time:      0.19 s, Step Size: 0.00215 s, Pressure Iterations: 10
 Time Step:     70, Simulation Time:      0.21 s, Step Size: 0.00207 s, Pressure Iterations: 10
 Time Step:     80, Simulation Time:      0.23 s, Step Size: 0.00212 s, Pressure Iterations: 10
 Time Step:     90, Simulation Time:      0.25 s, Step Size: 0.00233 s, Pressure Iterations: 10
 Time Step:    100, Simulation Time:      0.28 s, Step Size: 0.00257 s, Pressure Iterations: 10
 Time Step:    200, Simulation Time:      0.39 s, Step Size: 0.00081 s, Pressure Iterations: 10
 Time Step:    300, Simulation Time:      0.46 s, Step Size: 0.00076 s, Pressure Iterations: 10
 Time Step:    400, Simulation Time:      0.54 s, Step Size: 0.00073 s, Pressure Iterations: 10
 Time Step:    500, Simulation Time:      0.61 s, Step Size: 0.00058 s, Pressure Iterations: 8
 Time Step:    600, Simulation Time:      0.66 s, Step Size: 0.00058 s, Pressure Iterations: 10
 Time Step:    700, Simulation Time:      0.72 s, Step Size: 0.00056 s, Pressure Iterations: 10
 Time Step:    800, Simulation Time:      0.77 s, Step Size: 0.00056 s, Pressure Iterations: 10
 Time Step:    900, Simulation Time:      0.82 s, Step Size: 0.00040 s, Pressure Iterations: 10
 Time Step:   1000, Simulation Time:      0.86 s, Step Size: 0.00044 s, Pressure Iterations: 10
 Time Step:   1100, Simulation Time:      0.91 s, Step Size: 0.00044 s, Pressure Iterations: 10
 Time Step:   1200, Simulation Time:      0.95 s, Step Size: 0.00049 s, Pressure Iterations: 8
 Time Step:   1300, Simulation Time:      1.00 s, Step Size: 0.00044 s, Pressure Iterations: 10
 Time Step:   1400, Simulation Time:      1.04 s, Step Size: 0.00039 s, Pressure Iterations: 9
 Time Step:   1500, Simulation Time:      1.08 s, Step Size: 0.00040 s, Pressure Iterations: 9
 Time Step:   1600, Simulation Time:      1.12 s, Step Size: 0.00044 s, Pressure Iterations: 10
 Time Step:   1700, Simulation Time:      1.16 s, Step Size: 0.00044 s, Pressure Iterations: 10
 Time Step:   1800, Simulation Time:      1.21 s, Step Size: 0.00042 s, Pressure Iterations: 10
 Time Step:   1900, Simulation Time:      1.24 s, Step Size: 0.00038 s, Pressure Iterations: 9
 Time Step:   2000, Simulation Time:      1.28 s, Step Size: 0.00040 s, Pressure Iterations: 8
 Time Step:   2100, Simulation Time:      1.32 s, Step Size: 0.00040 s, Pressure Iterations: 9
 Time Step:   2200, Simulation Time:      1.36 s, Step Size: 0.00036 s, Pressure Iterations: 9
 Time Step:   2300, Simulation Time:      1.40 s, Step Size: 0.00036 s, Pressure Iterations: 8
 Time Step:   2400, Simulation Time:      1.44 s, Step Size: 0.00036 s, Pressure Iterations: 9
 Time Step:   2500, Simulation Time:      1.47 s, Step Size: 0.00038 s, Pressure Iterations: 9
 Time Step:   2600, Simulation Time:      1.51 s, Step Size: 0.00041 s, Pressure Iterations: 9
 Time Step:   2700, Simulation Time:      1.55 s, Step Size: 0.00033 s, Pressure Iterations: 9
 Time Step:   2800, Simulation Time:      1.58 s, Step Size: 0.00036 s, Pressure Iterations: 10
 Time Step:   2900, Simulation Time:      1.62 s, Step Size: 0.00040 s, Pressure Iterations: 10
 Time Step:   3000, Simulation Time:      1.66 s, Step Size: 0.00034 s, Pressure Iterations: 10
 Time Step:   3100, Simulation Time:      1.69 s, Step Size: 0.00036 s, Pressure Iterations: 10
 Time Step:   3200, Simulation Time:      1.73 s, Step Size: 0.00044 s, Pressure Iterations: 10
 Time Step:   3300, Simulation Time:      1.77 s, Step Size: 0.00038 s, Pressure Iterations: 8
 Time Step:   3400, Simulation Time:      1.81 s, Step Size: 0.00036 s, Pressure Iterations: 9
 Time Step:   3500, Simulation Time:      1.85 s, Step Size: 0.00043 s, Pressure Iterations: 9
 Time Step:   3600, Simulation Time:      1.89 s, Step Size: 0.00038 s, Pressure Iterations: 9
 Time Step:   3700, Simulation Time:      1.92 s, Step Size: 0.00034 s, Pressure Iterations: 9
 Time Step:   3800, Simulation Time:      1.96 s, Step Size: 0.00034 s, Pressure Iterations: 8
 Time Step:   3900, Simulation Time:      2.00 s, Step Size: 0.00040 s, Pressure Iterations: 10
 Time Step:   4000, Simulation Time:      2.03 s, Step Size: 0.00038 s, Pressure Iterations: 10
 Time Step:   4100, Simulation Time:      2.08 s, Step Size: 0.00046 s, Pressure Iterations: 10
 Time Step:   4200, Simulation Time:      2.11 s, Step Size: 0.00039 s, Pressure Iterations: 9
 Time Step:   4300, Simulation Time:      2.15 s, Step Size: 0.00034 s, Pressure Iterations: 10
 Time Step:   4400, Simulation Time:      2.18 s, Step Size: 0.00034 s, Pressure Iterations: 9
 Time Step:   4500, Simulation Time:      2.22 s, Step Size: 0.00034 s, Pressure Iterations: 8
 Time Step:   4600, Simulation Time:      2.26 s, Step Size: 0.00037 s, Pressure Iterations: 10
 Time Step:   4700, Simulation Time:      2.29 s, Step Size: 0.00028 s, Pressure Iterations: 8
 Time Step:   4800, Simulation Time:      2.33 s, Step Size: 0.00041 s, Pressure Iterations: 9
 Time Step:   4900, Simulation Time:      2.36 s, Step Size: 0.00032 s, Pressure Iterations: 9
 Time Step:   5000, Simulation Time:      2.40 s, Step Size: 0.00035 s, Pressure Iterations: 7
 Time Step:   5100, Simulation Time:      2.43 s, Step Size: 0.00039 s, Pressure Iterations: 8
 Time Step:   5200, Simulation Time:      2.47 s, Step Size: 0.00038 s, Pressure Iterations: 8
 Time Step:   5300, Simulation Time:      2.50 s, Step Size: 0.00037 s, Pressure Iterations: 10
 Time Step:   5400, Simulation Time:      2.54 s, Step Size: 0.00036 s, Pressure Iterations: 8
 Time Step:   5500, Simulation Time:      2.58 s, Step Size: 0.00036 s, Pressure Iterations: 10
 Time Step:   5600, Simulation Time:      2.61 s, Step Size: 0.00036 s, Pressure Iterations: 10
 Time Step:   5700, Simulation Time:      2.65 s, Step Size: 0.00035 s, Pressure Iterations: 10
 Time Step:   5800, Simulation Time:      2.68 s, Step Size: 0.00039 s, Pressure Iterations: 9
 Time Step:   5900, Simulation Time:      2.72 s, Step Size: 0.00037 s, Pressure Iterations: 9
 Time Step:   6000, Simulation Time:      2.76 s, Step Size: 0.00036 s, Pressure Iterations: 9
 Time Step:   6100, Simulation Time:      2.79 s, Step Size: 0.00039 s, Pressure Iterations: 10
 Time Step:   6200, Simulation Time:      2.83 s, Step Size: 0.00038 s, Pressure Iterations: 9
 Time Step:   6300, Simulation Time:      2.87 s, Step Size: 0.00037 s, Pressure Iterations: 9
 Time Step:   6400, Simulation Time:      2.91 s, Step Size: 0.00037 s, Pressure Iterations: 9
 Time Step:   6500, Simulation Time:      2.94 s, Step Size: 0.00033 s, Pressure Iterations: 10
 Time Step:   6600, Simulation Time:      2.98 s, Step Size: 0.00035 s, Pressure Iterations: 10
 Time Step:   6700, Simulation Time:      3.01 s, Step Size: 0.00041 s, Pressure Iterations: 10
 Time Step:   6800, Simulation Time:      3.05 s, Step Size: 0.00041 s, Pressure Iterations: 8
 Time Step:   6900, Simulation Time:      3.09 s, Step Size: 0.00044 s, Pressure Iterations: 10
 Time Step:   7000, Simulation Time:      3.13 s, Step Size: 0.00039 s, Pressure Iterations: 10
 Time Step:   7100, Simulation Time:      3.17 s, Step Size: 0.00039 s, Pressure Iterations: 10
 Time Step:   7200, Simulation Time:      3.21 s, Step Size: 0.00039 s, Pressure Iterations: 10
 Time Step:   7300, Simulation Time:      3.25 s, Step Size: 0.00035 s, Pressure Iterations: 10
 Time Step:   7400, Simulation Time:      3.28 s, Step Size: 0.00038 s, Pressure Iterations: 9
 Time Step:   7500, Simulation Time:      3.32 s, Step Size: 0.00034 s, Pressure Iterations: 8
 Time Step:   7600, Simulation Time:      3.36 s, Step Size: 0.00037 s, Pressure Iterations: 10
 Time Step:   7700, Simulation Time:      3.39 s, Step Size: 0.00034 s, Pressure Iterations: 8
 Time Step:   7800, Simulation Time:      3.43 s, Step Size: 0.00033 s, Pressure Iterations: 10
 Time Step:   7900, Simulation Time:      3.47 s, Step Size: 0.00040 s, Pressure Iterations: 8
 Time Step:   8000, Simulation Time:      3.51 s, Step Size: 0.00043 s, Pressure Iterations: 10
 Time Step:   8100, Simulation Time:      3.55 s, Step Size: 0.00038 s, Pressure Iterations: 10
 Time Step:   8200, Simulation Time:      3.58 s, Step Size: 0.00038 s, Pressure Iterations: 10
 Time Step:   8300, Simulation Time:      3.62 s, Step Size: 0.00033 s, Pressure Iterations: 10
 Time Step:   8400, Simulation Time:      3.65 s, Step Size: 0.00030 s, Pressure Iterations: 8
 Time Step:   8500, Simulation Time:      3.69 s, Step Size: 0.00035 s, Pressure Iterations: 10
 Time Step:   8600, Simulation Time:      3.73 s, Step Size: 0.00039 s, Pressure Iterations: 10
 Time Step:   8700, Simulation Time:      3.77 s, Step Size: 0.00035 s, Pressure Iterations: 9
 Time Step:   8800, Simulation Time:      3.80 s, Step Size: 0.00037 s, Pressure Iterations: 8
 Time Step:   8900, Simulation Time:      3.84 s, Step Size: 0.00033 s, Pressure Iterations: 10
 Time Step:   9000, Simulation Time:      3.87 s, Step Size: 0.00036 s, Pressure Iterations: 8
 Time Step:   9100, Simulation Time:      3.91 s, Step Size: 0.00039 s, Pressure Iterations: 10
 Time Step:   9200, Simulation Time:      3.94 s, Step Size: 0.00042 s, Pressure Iterations: 10
 Time Step:   9300, Simulation Time:      3.99 s, Step Size: 0.00037 s, Pressure Iterations: 10
 Time Step:   9400, Simulation Time:      4.02 s, Step Size: 0.00041 s, Pressure Iterations: 10
 Time Step:   9500, Simulation Time:      4.06 s, Step Size: 0.00037 s, Pressure Iterations: 8
 Time Step:   9600, Simulation Time:      4.10 s, Step Size: 0.00032 s, Pressure Iterations: 7
 Time Step:   9700, Simulation Time:      4.14 s, Step Size: 0.00035 s, Pressure Iterations: 10
 Time Step:   9800, Simulation Time:      4.17 s, Step Size: 0.00038 s, Pressure Iterations: 10
 Time Step:   9900, Simulation Time:      4.21 s, Step Size: 0.00038 s, Pressure Iterations: 10
 Time Step:  10000, Simulation Time:      4.25 s, Step Size: 0.00033 s, Pressure Iterations: 9
 Time Step:  10100, Simulation Time:      4.28 s, Step Size: 0.00039 s, Pressure Iterations: 8
 Time Step:  10200, Simulation Time:      4.32 s, Step Size: 0.00034 s, Pressure Iterations: 9
 Time Step:  10300, Simulation Time:      4.35 s, Step Size: 0.00041 s, Pressure Iterations: 9
 Time Step:  10400, Simulation Time:      4.39 s, Step Size: 0.00036 s, Pressure Iterations: 9
 Time Step:  10500, Simulation Time:      4.43 s, Step Size: 0.00039 s, Pressure Iterations: 9
 Time Step:  10600, Simulation Time:      4.47 s, Step Size: 0.00035 s, Pressure Iterations: 10
 Time Step:  10700, Simulation Time:      4.50 s, Step Size: 0.00034 s, Pressure Iterations: 9
 Time Step:  10800, Simulation Time:      4.54 s, Step Size: 0.00037 s, Pressure Iterations: 10
 Time Step:  10900, Simulation Time:      4.57 s, Step Size: 0.00037 s, Pressure Iterations: 10
 Time Step:  11000, Simulation Time:      4.61 s, Step Size: 0.00040 s, Pressure Iterations: 10
 Time Step:  11100, Simulation Time:      4.65 s, Step Size: 0.00036 s, Pressure Iterations: 8
 Time Step:  11200, Simulation Time:      4.69 s, Step Size: 0.00034 s, Pressure Iterations: 8
 Time Step:  11300, Simulation Time:      4.72 s, Step Size: 0.00036 s, Pressure Iterations: 10
 Time Step:  11400, Simulation Time:      4.76 s, Step Size: 0.00035 s, Pressure Iterations: 10
 Time Step:  11500, Simulation Time:      4.80 s, Step Size: 0.00035 s, Pressure Iterations: 8
 Time Step:  11600, Simulation Time:      4.83 s, Step Size: 0.00038 s, Pressure Iterations: 8
 Time Step:  11700, Simulation Time:      4.87 s, Step Size: 0.00038 s, Pressure Iterations: 10
 Time Step:  11800, Simulation Time:      4.91 s, Step Size: 0.00042 s, Pressure Iterations: 8
 Time Step:  11900, Simulation Time:      4.95 s, Step Size: 0.00041 s, Pressure Iterations: 10
 Time Step:  12000, Simulation Time:      4.99 s, Step Size: 0.00037 s, Pressure Iterations: 10
 Time Step:  12100, Simulation Time:      5.03 s, Step Size: 0.00040 s, Pressure Iterations: 10
 Time Step:  12200, Simulation Time:      5.06 s, Step Size: 0.00040 s, Pressure Iterations: 10
 Time Step:  12300, Simulation Time:      5.10 s, Step Size: 0.00040 s, Pressure Iterations: 8
 Time Step:  12400, Simulation Time:      5.14 s, Step Size: 0.00038 s, Pressure Iterations: 10
 Time Step:  12500, Simulation Time:      5.18 s, Step Size: 0.00038 s, Pressure Iterations: 9
 Time Step:  12600, Simulation Time:      5.22 s, Step Size: 0.00038 s, Pressure Iterations: 8
 Time Step:  12700, Simulation Time:      5.25 s, Step Size: 0.00041 s, Pressure Iterations: 10
 Time Step:  12800, Simulation Time:      5.30 s, Step Size: 0.00041 s, Pressure Iterations: 9
 Time Step:  12900, Simulation Time:      5.34 s, Step Size: 0.00044 s, Pressure Iterations: 9
 Time Step:  13000, Simulation Time:      5.38 s, Step Size: 0.00042 s, Pressure Iterations: 8
 Time Step:  13100, Simulation Time:      5.42 s, Step Size: 0.00041 s, Pressure Iterations: 10
 Time Step:  13200, Simulation Time:      5.46 s, Step Size: 0.00037 s, Pressure Iterations: 8
 Time Step:  13300, Simulation Time:      5.50 s, Step Size: 0.00037 s, Pressure Iterations: 10
 Time Step:  13400, Simulation Time:      5.53 s, Step Size: 0.00037 s, Pressure Iterations: 9
 Time Step:  13500, Simulation Time:      5.57 s, Step Size: 0.00033 s, Pressure Iterations: 10
 Time Step:  13600, Simulation Time:      5.60 s, Step Size: 0.00036 s, Pressure Iterations: 10
 Time Step:  13700, Simulation Time:      5.64 s, Step Size: 0.00044 s, Pressure Iterations: 10
 Time Step:  13800, Simulation Time:      5.68 s, Step Size: 0.00043 s, Pressure Iterations: 10
 Time Step:  13900, Simulation Time:      5.72 s, Step Size: 0.00043 s, Pressure Iterations: 10
 Time Step:  14000, Simulation Time:      5.76 s, Step Size: 0.00034 s, Pressure Iterations: 7
 Time Step:  14100, Simulation Time:      5.80 s, Step Size: 0.00036 s, Pressure Iterations: 8
 Time Step:  14200, Simulation Time:      5.84 s, Step Size: 0.00039 s, Pressure Iterations: 8
 Time Step:  14300, Simulation Time:      5.87 s, Step Size: 0.00038 s, Pressure Iterations: 10
 Time Step:  14400, Simulation Time:      5.91 s, Step Size: 0.00041 s, Pressure Iterations: 8
 Time Step:  14500, Simulation Time:      5.95 s, Step Size: 0.00037 s, Pressure Iterations: 10
 Time Step:  14600, Simulation Time:      5.99 s, Step Size: 0.00035 s, Pressure Iterations: 7
 Time Step:  14700, Simulation Time:      6.02 s, Step Size: 0.00041 s, Pressure Iterations: 10
 Time Step:  14800, Simulation Time:      6.06 s, Step Size: 0.00040 s, Pressure Iterations: 10
 Time Step:  14900, Simulation Time:      6.10 s, Step Size: 0.00036 s, Pressure Iterations: 8
 Time Step:  15000, Simulation Time:      6.14 s, Step Size: 0.00036 s, Pressure Iterations: 8
 Time Step:  15100, Simulation Time:      6.17 s, Step Size: 0.00039 s, Pressure Iterations: 9
 Time Step:  15200, Simulation Time:      6.21 s, Step Size: 0.00043 s, Pressure Iterations: 10
 Time Step:  15300, Simulation Time:      6.26 s, Step Size: 0.00043 s, Pressure Iterations: 10
 Time Step:  15400, Simulation Time:      6.29 s, Step Size: 0.00042 s, Pressure Iterations: 9
 Time Step:  15500, Simulation Time:      6.34 s, Step Size: 0.00041 s, Pressure Iterations: 10
 Time Step:  15600, Simulation Time:      6.37 s, Step Size: 0.00041 s, Pressure Iterations: 10
 Time Step:  15700, Simulation Time:      6.42 s, Step Size: 0.00041 s, Pressure Iterations: 10
 Time Step:  15800, Simulation Time:      6.45 s, Step Size: 0.00040 s, Pressure Iterations: 9
 Time Step:  15900, Simulation Time:      6.49 s, Step Size: 0.00039 s, Pressure Iterations: 9
 Time Step:  16000, Simulation Time:      6.53 s, Step Size: 0.00039 s, Pressure Iterations: 10
 Time Step:  16100, Simulation Time:      6.57 s, Step Size: 0.00037 s, Pressure Iterations: 8
 Time Step:  16200, Simulation Time:      6.61 s, Step Size: 0.00040 s, Pressure Iterations: 10
 Time Step:  16300, Simulation Time:      6.65 s, Step Size: 0.00036 s, Pressure Iterations: 10
 Time Step:  16400, Simulation Time:      6.68 s, Step Size: 0.00034 s, Pressure Iterations: 9
 Time Step:  16500, Simulation Time:      6.72 s, Step Size: 0.00041 s, Pressure Iterations: 10
 Time Step:  16600, Simulation Time:      6.76 s, Step Size: 0.00041 s, Pressure Iterations: 9
 Time Step:  16700, Simulation Time:      6.80 s, Step Size: 0.00045 s, Pressure Iterations: 10
 Time Step:  16800, Simulation Time:      6.84 s, Step Size: 0.00040 s, Pressure Iterations: 8
 Time Step:  16900, Simulation Time:      6.88 s, Step Size: 0.00040 s, Pressure Iterations: 10
 Time Step:  17000, Simulation Time:      6.92 s, Step Size: 0.00040 s, Pressure Iterations: 9
 Time Step:  17100, Simulation Time:      6.96 s, Step Size: 0.00039 s, Pressure Iterations: 9
 Time Step:  17200, Simulation Time:      7.00 s, Step Size: 0.00038 s, Pressure Iterations: 9
 Time Step:  17300, Simulation Time:      7.04 s, Step Size: 0.00041 s, Pressure Iterations: 9
 Time Step:  17400, Simulation Time:      7.08 s, Step Size: 0.00040 s, Pressure Iterations: 9
 Time Step:  17500, Simulation Time:      7.12 s, Step Size: 0.00036 s, Pressure Iterations: 10
 Time Step:  17600, Simulation Time:      7.16 s, Step Size: 0.00039 s, Pressure Iterations: 10
 Time Step:  17700, Simulation Time:      7.20 s, Step Size: 0.00039 s, Pressure Iterations: 10
 Time Step:  17800, Simulation Time:      7.23 s, Step Size: 0.00039 s, Pressure Iterations: 10
 Time Step:  17900, Simulation Time:      7.27 s, Step Size: 0.00041 s, Pressure Iterations: 9
 Time Step:  18000, Simulation Time:      7.31 s, Step Size: 0.00040 s, Pressure Iterations: 10
 Time Step:  18100, Simulation Time:      7.35 s, Step Size: 0.00040 s, Pressure Iterations: 10
 Time Step:  18200, Simulation Time:      7.39 s, Step Size: 0.00040 s, Pressure Iterations: 9
 Time Step:  18300, Simulation Time:      7.43 s, Step Size: 0.00039 s, Pressure Iterations: 9
 Time Step:  18400, Simulation Time:      7.47 s, Step Size: 0.00035 s, Pressure Iterations: 9
 Time Step:  18500, Simulation Time:      7.50 s, Step Size: 0.00038 s, Pressure Iterations: 10
 Time Step:  18600, Simulation Time:      7.54 s, Step Size: 0.00037 s, Pressure Iterations: 9
 Time Step:  18700, Simulation Time:      7.58 s, Step Size: 0.00041 s, Pressure Iterations: 8
 Time Step:  18800, Simulation Time:      7.62 s, Step Size: 0.00036 s, Pressure Iterations: 10
 Time Step:  18900, Simulation Time:      7.66 s, Step Size: 0.00033 s, Pressure Iterations: 10
 Time Step:  19000, Simulation Time:      7.69 s, Step Size: 0.00039 s, Pressure Iterations: 10
 Time Step:  19100, Simulation Time:      7.73 s, Step Size: 0.00043 s, Pressure Iterations: 10
 Time Step:  19200, Simulation Time:      7.77 s, Step Size: 0.00036 s, Pressure Iterations: 10
 Time Step:  19300, Simulation Time:      7.80 s, Step Size: 0.00036 s, Pressure Iterations: 8
 Time Step:  19400, Simulation Time:      7.84 s, Step Size: 0.00036 s, Pressure Iterations: 10
 Time Step:  19500, Simulation Time:      7.88 s, Step Size: 0.00042 s, Pressure Iterations: 10
 Time Step:  19600, Simulation Time:      7.92 s, Step Size: 0.00037 s, Pressure Iterations: 9
 Time Step:  19700, Simulation Time:      7.96 s, Step Size: 0.00036 s, Pressure Iterations: 10
 Time Step:  19800, Simulation Time:      7.99 s, Step Size: 0.00039 s, Pressure Iterations: 10
 Time Step:  19900, Simulation Time:      8.03 s, Step Size: 0.00039 s, Pressure Iterations: 10
 Time Step:  20000, Simulation Time:      8.07 s, Step Size: 0.00039 s, Pressure Iterations: 10
 Time Step:  20100, Simulation Time:      8.11 s, Step Size: 0.00038 s, Pressure Iterations: 9
 Time Step:  20200, Simulation Time:      8.15 s, Step Size: 0.00042 s, Pressure Iterations: 10
 Time Step:  20300, Simulation Time:      8.19 s, Step Size: 0.00042 s, Pressure Iterations: 10
 Time Step:  20400, Simulation Time:      8.23 s, Step Size: 0.00037 s, Pressure Iterations: 8
 Time Step:  20500, Simulation Time:      8.27 s, Step Size: 0.00040 s, Pressure Iterations: 9
 Time Step:  20600, Simulation Time:      8.31 s, Step Size: 0.00040 s, Pressure Iterations: 8
 Time Step:  20700, Simulation Time:      8.35 s, Step Size: 0.00039 s, Pressure Iterations: 10
 Time Step:  20800, Simulation Time:      8.38 s, Step Size: 0.00038 s, Pressure Iterations: 10
 Time Step:  20900, Simulation Time:      8.42 s, Step Size: 0.00042 s, Pressure Iterations: 7
 Time Step:  21000, Simulation Time:      8.46 s, Step Size: 0.00037 s, Pressure Iterations: 10
 Time Step:  21100, Simulation Time:      8.50 s, Step Size: 0.00041 s, Pressure Iterations: 10
 Time Step:  21200, Simulation Time:      8.54 s, Step Size: 0.00040 s, Pressure Iterations: 10
 Time Step:  21300, Simulation Time:      8.58 s, Step Size: 0.00036 s, Pressure Iterations: 10
 Time Step:  21400, Simulation Time:      8.62 s, Step Size: 0.00043 s, Pressure Iterations: 9
 Time Step:  21500, Simulation Time:      8.66 s, Step Size: 0.00041 s, Pressure Iterations: 9
 Time Step:  21600, Simulation Time:      8.70 s, Step Size: 0.00041 s, Pressure Iterations: 7
 Time Step:  21700, Simulation Time:      8.74 s, Step Size: 0.00041 s, Pressure Iterations: 10
 Time Step:  21800, Simulation Time:      8.78 s, Step Size: 0.00036 s, Pressure Iterations: 10
 Time Step:  21900, Simulation Time:      8.82 s, Step Size: 0.00036 s, Pressure Iterations: 10
 Time Step:  22000, Simulation Time:      8.85 s, Step Size: 0.00039 s, Pressure Iterations: 10
 Time Step:  22100, Simulation Time:      8.89 s, Step Size: 0.00035 s, Pressure Iterations: 9
 Time Step:  22200, Simulation Time:      8.93 s, Step Size: 0.00039 s, Pressure Iterations: 8
 Time Step:  22300, Simulation Time:      8.96 s, Step Size: 0.00035 s, Pressure Iterations: 8
 Time Step:  22400, Simulation Time:      9.00 s, Step Size: 0.00037 s, Pressure Iterations: 10
 Time Step:  22500, Simulation Time:      9.04 s, Step Size: 0.00036 s, Pressure Iterations: 9
 Time Step:  22600, Simulation Time:      9.07 s, Step Size: 0.00036 s, Pressure Iterations: 10
 Time Step:  22700, Simulation Time:      9.11 s, Step Size: 0.00040 s, Pressure Iterations: 10
 Time Step:  22800, Simulation Time:      9.15 s, Step Size: 0.00036 s, Pressure Iterations: 9
 Time Step:  22900, Simulation Time:      9.18 s, Step Size: 0.00039 s, Pressure Iterations: 10
 Time Step:  23000, Simulation Time:      9.22 s, Step Size: 0.00039 s, Pressure Iterations: 8
 Time Step:  23100, Simulation Time:      9.26 s, Step Size: 0.00037 s, Pressure Iterations: 10
 Time Step:  23200, Simulation Time:      9.30 s, Step Size: 0.00034 s, Pressure Iterations: 10
 Time Step:  23300, Simulation Time:      9.33 s, Step Size: 0.00037 s, Pressure Iterations: 8
 Time Step:  23400, Simulation Time:      9.37 s, Step Size: 0.00036 s, Pressure Iterations: 10
 Time Step:  23500, Simulation Time:      9.40 s, Step Size: 0.00034 s, Pressure Iterations: 10
 Time Step:  23600, Simulation Time:      9.44 s, Step Size: 0.00037 s, Pressure Iterations: 9
 Time Step:  23700, Simulation Time:      9.48 s, Step Size: 0.00037 s, Pressure Iterations: 10
 Time Step:  23800, Simulation Time:      9.52 s, Step Size: 0.00037 s, Pressure Iterations: 8
 Time Step:  23900, Simulation Time:      9.55 s, Step Size: 0.00041 s, Pressure Iterations: 10
 Time Step:  24000, Simulation Time:      9.59 s, Step Size: 0.00040 s, Pressure Iterations: 10
 Time Step:  24100, Simulation Time:      9.63 s, Step Size: 0.00042 s, Pressure Iterations: 10
 Time Step:  24200, Simulation Time:      9.67 s, Step Size: 0.00037 s, Pressure Iterations: 10
 Time Step:  24300, Simulation Time:      9.70 s, Step Size: 0.00037 s, Pressure Iterations: 10
 Time Step:  24400, Simulation Time:      9.74 s, Step Size: 0.00041 s, Pressure Iterations: 10
 Time Step:  24500, Simulation Time:      9.78 s, Step Size: 0.00033 s, Pressure Iterations: 9
 Time Step:  24600, Simulation Time:      9.81 s, Step Size: 0.00035 s, Pressure Iterations: 10
 Time Step:  24700, Simulation Time:      9.85 s, Step Size: 0.00043 s, Pressure Iterations: 9
 Time Step:  24800, Simulation Time:      9.89 s, Step Size: 0.00038 s, Pressure Iterations: 10
 Time Step:  24900, Simulation Time:      9.93 s, Step Size: 0.00034 s, Pressure Iterations: 9
 Time Step:  25000, Simulation Time:      9.97 s, Step Size: 0.00037 s, Pressure Iterations: 8
 Time Step:  25100, Simulation Time:     10.00 s, Step Size: 0.00040 s, Pressure Iterations: 10
 Time Step:  25200, Simulation Time:     10.04 s, Step Size: 0.00044 s, Pressure Iterations: 10
 Time Step:  25300, Simulation Time:     10.09 s, Step Size: 0.00039 s, Pressure Iterations: 10
 Time Step:  25400, Simulation Time:     10.12 s, Step Size: 0.00039 s, Pressure Iterations: 8
 Time Step:  25500, Simulation Time:     10.16 s, Step Size: 0.00041 s, Pressure Iterations: 7
 Time Step:  25600, Simulation Time:     10.20 s, Step Size: 0.00040 s, Pressure Iterations: 10
 Time Step:  25700, Simulation Time:     10.24 s, Step Size: 0.00039 s, Pressure Iterations: 8
 Time Step:  25800, Simulation Time:     10.28 s, Step Size: 0.00037 s, Pressure Iterations: 8
 Time Step:  25900, Simulation Time:     10.31 s, Step Size: 0.00033 s, Pressure Iterations: 8
 Time Step:  26000, Simulation Time:     10.35 s, Step Size: 0.00037 s, Pressure Iterations: 10
 Time Step:  26100, Simulation Time:     10.39 s, Step Size: 0.00040 s, Pressure Iterations: 10
 Time Step:  26200, Simulation Time:     10.43 s, Step Size: 0.00044 s, Pressure Iterations: 10
 Time Step:  26300, Simulation Time:     10.47 s, Step Size: 0.00031 s, Pressure Iterations: 10
 Time Step:  26400, Simulation Time:     10.51 s, Step Size: 0.00042 s, Pressure Iterations: 9
 Time Step:  26500, Simulation Time:     10.55 s, Step Size: 0.00040 s, Pressure Iterations: 8
 Time Step:  26600, Simulation Time:     10.59 s, Step Size: 0.00040 s, Pressure Iterations: 8
 Time Step:  26700, Simulation Time:     10.62 s, Step Size: 0.00040 s, Pressure Iterations: 10
 Time Step:  26800, Simulation Time:     10.67 s, Step Size: 0.00042 s, Pressure Iterations: 9
 Time Step:  26900, Simulation Time:     10.71 s, Step Size: 0.00041 s, Pressure Iterations: 8
 Time Step:  27000, Simulation Time:     10.75 s, Step Size: 0.00036 s, Pressure Iterations: 9
 Time Step:  27100, Simulation Time:     10.78 s, Step Size: 0.00036 s, Pressure Iterations: 9
 Time Step:  27200, Simulation Time:     10.83 s, Step Size: 0.00039 s, Pressure Iterations: 9
 Time Step:  27300, Simulation Time:     10.86 s, Step Size: 0.00035 s, Pressure Iterations: 10
 Time Step:  27400, Simulation Time:     10.90 s, Step Size: 0.00039 s, Pressure Iterations: 8
 Time Step:  27500, Simulation Time:     10.94 s, Step Size: 0.00038 s, Pressure Iterations: 10
 Time Step:  27600, Simulation Time:     10.98 s, Step Size: 0.00042 s, Pressure Iterations: 9
 Time Step:  27700, Simulation Time:     11.02 s, Step Size: 0.00041 s, Pressure Iterations: 10
 Time Step:  27800, Simulation Time:     11.06 s, Step Size: 0.00041 s, Pressure Iterations: 9
 Time Step:  27900, Simulation Time:     11.09 s, Step Size: 0.00040 s, Pressure Iterations: 10
 Time Step:  28000, Simulation Time:     11.13 s, Step Size: 0.00036 s, Pressure Iterations: 8
 Time Step:  28100, Simulation Time:     11.17 s, Step Size: 0.00038 s, Pressure Iterations: 8
 Time Step:  28200, Simulation Time:     11.21 s, Step Size: 0.00038 s, Pressure Iterations: 10
 Time Step:  28300, Simulation Time:     11.25 s, Step Size: 0.00038 s, Pressure Iterations: 10
 Time Step:  28400, Simulation Time:     11.29 s, Step Size: 0.00038 s, Pressure Iterations: 10
 Time Step:  28500, Simulation Time:     11.33 s, Step Size: 0.00041 s, Pressure Iterations: 10
 Time Step:  28600, Simulation Time:     11.37 s, Step Size: 0.00039 s, Pressure Iterations: 10
 Time Step:  28700, Simulation Time:     11.41 s, Step Size: 0.00042 s, Pressure Iterations: 10
 Time Step:  28800, Simulation Time:     11.45 s, Step Size: 0.00042 s, Pressure Iterations: 9
 Time Step:  28900, Simulation Time:     11.49 s, Step Size: 0.00042 s, Pressure Iterations: 10
 Time Step:  29000, Simulation Time:     11.53 s, Step Size: 0.00037 s, Pressure Iterations: 8
 Time Step:  29100, Simulation Time:     11.57 s, Step Size: 0.00041 s, Pressure Iterations: 10
 Time Step:  29200, Simulation Time:     11.61 s, Step Size: 0.00032 s, Pressure Iterations: 10
 Time Step:  29300, Simulation Time:     11.65 s, Step Size: 0.00043 s, Pressure Iterations: 10
 Time Step:  29400, Simulation Time:     11.69 s, Step Size: 0.00042 s, Pressure Iterations: 9
 Time Step:  29500, Simulation Time:     11.73 s, Step Size: 0.00041 s, Pressure Iterations: 10
 Time Step:  29600, Simulation Time:     11.77 s, Step Size: 0.00036 s, Pressure Iterations: 8
 Time Step:  29700, Simulation Time:     11.81 s, Step Size: 0.00040 s, Pressure Iterations: 10
 Time Step:  29800, Simulation Time:     11.85 s, Step Size: 0.00040 s, Pressure Iterations: 10
 Time Step:  29900, Simulation Time:     11.89 s, Step Size: 0.00040 s, Pressure Iterations: 10
 Time Step:  30000, Simulation Time:     11.93 s, Step Size: 0.00040 s, Pressure Iterations: 10
 Time Step:  30100, Simulation Time:     11.97 s, Step Size: 0.00040 s, Pressure Iterations: 8
 Time Step:  30200, Simulation Time:     12.01 s, Step Size: 0.00035 s, Pressure Iterations: 10
 Time Step:  30300, Simulation Time:     12.04 s, Step Size: 0.00034 s, Pressure Iterations: 9
 Time Step:  30400, Simulation Time:     12.08 s, Step Size: 0.00040 s, Pressure Iterations: 10
 Time Step:  30500, Simulation Time:     12.12 s, Step Size: 0.00040 s, Pressure Iterations: 10
 Time Step:  30600, Simulation Time:     12.16 s, Step Size: 0.00040 s, Pressure Iterations: 9
 Time Step:  30700, Simulation Time:     12.20 s, Step Size: 0.00040 s, Pressure Iterations: 10
 Time Step:  30800, Simulation Time:     12.24 s, Step Size: 0.00040 s, Pressure Iterations: 10
 Time Step:  30900, Simulation Time:     12.28 s, Step Size: 0.00039 s, Pressure Iterations: 10
 Time Step:  31000, Simulation Time:     12.32 s, Step Size: 0.00043 s, Pressure Iterations: 10
 Time Step:  31100, Simulation Time:     12.36 s, Step Size: 0.00038 s, Pressure Iterations: 8
 Time Step:  31200, Simulation Time:     12.40 s, Step Size: 0.00041 s, Pressure Iterations: 10
 Time Step:  31300, Simulation Time:     12.44 s, Step Size: 0.00040 s, Pressure Iterations: 10
 Time Step:  31400, Simulation Time:     12.48 s, Step Size: 0.00040 s, Pressure Iterations: 10
 Time Step:  31500, Simulation Time:     12.52 s, Step Size: 0.00035 s, Pressure Iterations: 10
 Time Step:  31600, Simulation Time:     12.56 s, Step Size: 0.00043 s, Pressure Iterations: 8
 Time Step:  31700, Simulation Time:     12.60 s, Step Size: 0.00037 s, Pressure Iterations: 10
 Time Step:  31800, Simulation Time:     12.63 s, Step Size: 0.00036 s, Pressure Iterations: 9
 Time Step:  31900, Simulation Time:     12.67 s, Step Size: 0.00040 s, Pressure Iterations: 8
 Time Step:  32000, Simulation Time:     12.71 s, Step Size: 0.00040 s, Pressure Iterations: 10
 Time Step:  32100, Simulation Time:     12.75 s, Step Size: 0.00040 s, Pressure Iterations: 9
 Time Step:  32200, Simulation Time:     12.79 s, Step Size: 0.00040 s, Pressure Iterations: 8
 Time Step:  32300, Simulation Time:     12.83 s, Step Size: 0.00043 s, Pressure Iterations: 10
 Time Step:  32400, Simulation Time:     12.87 s, Step Size: 0.00042 s, Pressure Iterations: 9
 Time Step:  32500, Simulation Time:     12.92 s, Step Size: 0.00042 s, Pressure Iterations: 8
 Time Step:  32600, Simulation Time:     12.96 s, Step Size: 0.00038 s, Pressure Iterations: 9
 Time Step:  32700, Simulation Time:     13.00 s, Step Size: 0.00041 s, Pressure Iterations: 10
 Time Step:  32800, Simulation Time:     13.04 s, Step Size: 0.00041 s, Pressure Iterations: 10
 Time Step:  32900, Simulation Time:     13.08 s, Step Size: 0.00041 s, Pressure Iterations: 9
 Time Step:  33000, Simulation Time:     13.12 s, Step Size: 0.00039 s, Pressure Iterations: 8
 Time Step:  33100, Simulation Time:     13.16 s, Step Size: 0.00043 s, Pressure Iterations: 10
 Time Step:  33200, Simulation Time:     13.20 s, Step Size: 0.00043 s, Pressure Iterations: 10
 Time Step:  33300, Simulation Time:     13.24 s, Step Size: 0.00039 s, Pressure Iterations: 9
 Time Step:  33400, Simulation Time:     13.28 s, Step Size: 0.00042 s, Pressure Iterations: 10
 Time Step:  33500, Simulation Time:     13.32 s, Step Size: 0.00038 s, Pressure Iterations: 8
 Time Step:  33600, Simulation Time:     13.36 s, Step Size: 0.00042 s, Pressure Iterations: 10
 Time Step:  33700, Simulation Time:     13.40 s, Step Size: 0.00038 s, Pressure Iterations: 10
 Time Step:  33800, Simulation Time:     13.44 s, Step Size: 0.00045 s, Pressure Iterations: 10
 Time Step:  33900, Simulation Time:     13.48 s, Step Size: 0.00041 s, Pressure Iterations: 10
 Time Step:  34000, Simulation Time:     13.52 s, Step Size: 0.00041 s, Pressure Iterations: 10
 Time Step:  34100, Simulation Time:     13.57 s, Step Size: 0.00041 s, Pressure Iterations: 9
 Time Step:  34200, Simulation Time:     13.61 s, Step Size: 0.00036 s, Pressure Iterations: 10
 Time Step:  34300, Simulation Time:     13.64 s, Step Size: 0.00043 s, Pressure Iterations: 9
 Time Step:  34400, Simulation Time:     13.68 s, Step Size: 0.00038 s, Pressure Iterations: 10
 Time Step:  34500, Simulation Time:     13.72 s, Step Size: 0.00038 s, Pressure Iterations: 10
 Time Step:  34600, Simulation Time:     13.76 s, Step Size: 0.00042 s, Pressure Iterations: 10
 Time Step:  34700, Simulation Time:     13.80 s, Step Size: 0.00041 s, Pressure Iterations: 10
 Time Step:  34800, Simulation Time:     13.84 s, Step Size: 0.00040 s, Pressure Iterations: 10
 Time Step:  34900, Simulation Time:     13.88 s, Step Size: 0.00032 s, Pressure Iterations: 10
 Time Step:  35000, Simulation Time:     13.91 s, Step Size: 0.00038 s, Pressure Iterations: 10
 Time Step:  35100, Simulation Time:     13.95 s, Step Size: 0.00036 s, Pressure Iterations: 10
 Time Step:  35200, Simulation Time:     13.99 s, Step Size: 0.00040 s, Pressure Iterations: 10
 Time Step:  35300, Simulation Time:     14.03 s, Step Size: 0.00039 s, Pressure Iterations: 10
 Time Step:  35400, Simulation Time:     14.07 s, Step Size: 0.00034 s, Pressure Iterations: 9
 Time Step:  35500, Simulation Time:     14.11 s, Step Size: 0.00041 s, Pressure Iterations: 10
 Time Step:  35600, Simulation Time:     14.14 s, Step Size: 0.00040 s, Pressure Iterations: 10
 Time Step:  35700, Simulation Time:     14.19 s, Step Size: 0.00039 s, Pressure Iterations: 10
 Time Step:  35800, Simulation Time:     14.23 s, Step Size: 0.00039 s, Pressure Iterations: 10
 Time Step:  35900, Simulation Time:     14.27 s, Step Size: 0.00043 s, Pressure Iterations: 10
 Time Step:  36000, Simulation Time:     14.31 s, Step Size: 0.00038 s, Pressure Iterations: 10
 Time Step:  36100, Simulation Time:     14.35 s, Step Size: 0.00038 s, Pressure Iterations: 10
 Time Step:  36200, Simulation Time:     14.39 s, Step Size: 0.00041 s, Pressure Iterations: 10
 Time Step:  36300, Simulation Time:     14.43 s, Step Size: 0.00040 s, Pressure Iterations: 10
 Time Step:  36400, Simulation Time:     14.47 s, Step Size: 0.00044 s, Pressure Iterations: 10
 Time Step:  36500, Simulation Time:     14.52 s, Step Size: 0.00039 s, Pressure Iterations: 10
 Time Step:  36600, Simulation Time:     14.56 s, Step Size: 0.00043 s, Pressure Iterations: 10
 Time Step:  36700, Simulation Time:     14.60 s, Step Size: 0.00038 s, Pressure Iterations: 10
 Time Step:  36800, Simulation Time:     14.64 s, Step Size: 0.00042 s, Pressure Iterations: 9
 Time Step:  36900, Simulation Time:     14.68 s, Step Size: 0.00037 s, Pressure Iterations: 8
 Time Step:  37000, Simulation Time:     14.72 s, Step Size: 0.00041 s, Pressure Iterations: 10
 Time Step:  37100, Simulation Time:     14.76 s, Step Size: 0.00041 s, Pressure Iterations: 10
 Time Step:  37200, Simulation Time:     14.80 s, Step Size: 0.00039 s, Pressure Iterations: 10
 Time Step:  37300, Simulation Time:     14.84 s, Step Size: 0.00043 s, Pressure Iterations: 10
 Time Step:  37400, Simulation Time:     14.88 s, Step Size: 0.00039 s, Pressure Iterations: 10
 Time Step:  37500, Simulation Time:     14.92 s, Step Size: 0.00035 s, Pressure Iterations: 8
 Time Step:  37600, Simulation Time:     14.95 s, Step Size: 0.00035 s, Pressure Iterations: 8
 Time Step:  37700, Simulation Time:     14.99 s, Step Size: 0.00038 s, Pressure Iterations: 10
 Time Step:  37800, Simulation Time:     15.03 s, Step Size: 0.00040 s, Pressure Iterations: 10
 Time Step:  37900, Simulation Time:     15.07 s, Step Size: 0.00037 s, Pressure Iterations: 10
 Time Step:  38000, Simulation Time:     15.10 s, Step Size: 0.00037 s, Pressure Iterations: 8
 Time Step:  38100, Simulation Time:     15.14 s, Step Size: 0.00037 s, Pressure Iterations: 10
 Time Step:  38200, Simulation Time:     15.18 s, Step Size: 0.00040 s, Pressure Iterations: 10
 Time Step:  38300, Simulation Time:     15.22 s, Step Size: 0.00040 s, Pressure Iterations: 10
 Time Step:  38400, Simulation Time:     15.26 s, Step Size: 0.00035 s, Pressure Iterations: 10
 Time Step:  38500, Simulation Time:     15.30 s, Step Size: 0.00042 s, Pressure Iterations: 10
 Time Step:  38600, Simulation Time:     15.34 s, Step Size: 0.00042 s, Pressure Iterations: 8
 Time Step:  38700, Simulation Time:     15.38 s, Step Size: 0.00046 s, Pressure Iterations: 10
 Time Step:  38800, Simulation Time:     15.43 s, Step Size: 0.00040 s, Pressure Iterations: 9
 Time Step:  38900, Simulation Time:     15.47 s, Step Size: 0.00040 s, Pressure Iterations: 10
 Time Step:  39000, Simulation Time:     15.50 s, Step Size: 0.00036 s, Pressure Iterations: 10
 Time Step:  39100, Simulation Time:     15.54 s, Step Size: 0.00040 s, Pressure Iterations: 10
 Time Step:  39200, Simulation Time:     15.58 s, Step Size: 0.00039 s, Pressure Iterations: 10
 Time Step:  39300, Simulation Time:     15.62 s, Step Size: 0.00043 s, Pressure Iterations: 10
 Time Step:  39400, Simulation Time:     15.66 s, Step Size: 0.00038 s, Pressure Iterations: 10
 Time Step:  39500, Simulation Time:     15.70 s, Step Size: 0.00042 s, Pressure Iterations: 10
 Time Step:  39600, Simulation Time:     15.74 s, Step Size: 0.00041 s, Pressure Iterations: 10
 Time Step:  39700, Simulation Time:     15.78 s, Step Size: 0.00040 s, Pressure Iterations: 10
 Time Step:  39800, Simulation Time:     15.82 s, Step Size: 0.00040 s, Pressure Iterations: 10
 Time Step:  39900, Simulation Time:     15.86 s, Step Size: 0.00038 s, Pressure Iterations: 9
 Time Step:  40000, Simulation Time:     15.90 s, Step Size: 0.00041 s, Pressure Iterations: 10
 Time Step:  40100, Simulation Time:     15.94 s, Step Size: 0.00041 s, Pressure Iterations: 10
 Time Step:  40200, Simulation Time:     15.98 s, Step Size: 0.00041 s, Pressure Iterations: 10
 Time Step:  40300, Simulation Time:     16.02 s, Step Size: 0.00049 s, Pressure Iterations: 10
 Time Step:  40400, Simulation Time:     16.07 s, Step Size: 0.00044 s, Pressure Iterations: 10
 Time Step:  40500, Simulation Time:     16.11 s, Step Size: 0.00044 s, Pressure Iterations: 10
 Time Step:  40600, Simulation Time:     16.16 s, Step Size: 0.00039 s, Pressure Iterations: 10
 Time Step:  40700, Simulation Time:     16.20 s, Step Size: 0.00043 s, Pressure Iterations: 10
 Time Step:  40800, Simulation Time:     16.24 s, Step Size: 0.00043 s, Pressure Iterations: 10
 Time Step:  40900, Simulation Time:     16.28 s, Step Size: 0.00047 s, Pressure Iterations: 10
 Time Step:  41000, Simulation Time:     16.32 s, Step Size: 0.00036 s, Pressure Iterations: 10
 Time Step:  41100, Simulation Time:     16.36 s, Step Size: 0.00040 s, Pressure Iterations: 10
 Time Step:  41200, Simulation Time:     16.41 s, Step Size: 0.00044 s, Pressure Iterations: 10
 Time Step:  41300, Simulation Time:     16.45 s, Step Size: 0.00034 s, Pressure Iterations: 10
 Time Step:  41400, Simulation Time:     16.48 s, Step Size: 0.00042 s, Pressure Iterations: 10
 Time Step:  41500, Simulation Time:     16.52 s, Step Size: 0.00041 s, Pressure Iterations: 10
 Time Step:  41600, Simulation Time:     16.56 s, Step Size: 0.00040 s, Pressure Iterations: 10
 Time Step:  41700, Simulation Time:     16.61 s, Step Size: 0.00043 s, Pressure Iterations: 10
 Time Step:  41800, Simulation Time:     16.65 s, Step Size: 0.00039 s, Pressure Iterations: 10
 Time Step:  41900, Simulation Time:     16.68 s, Step Size: 0.00035 s, Pressure Iterations: 10
 Time Step:  42000, Simulation Time:     16.72 s, Step Size: 0.00038 s, Pressure Iterations: 10
 Time Step:  42100, Simulation Time:     16.76 s, Step Size: 0.00041 s, Pressure Iterations: 10
 Time Step:  42200, Simulation Time:     16.80 s, Step Size: 0.00036 s, Pressure Iterations: 10
 Time Step:  42300, Simulation Time:     16.83 s, Step Size: 0.00043 s, Pressure Iterations: 10
 Time Step:  42400, Simulation Time:     16.88 s, Step Size: 0.00043 s, Pressure Iterations: 10
 Time Step:  42500, Simulation Time:     16.92 s, Step Size: 0.00041 s, Pressure Iterations: 10
 Time Step:  42600, Simulation Time:     16.96 s, Step Size: 0.00040 s, Pressure Iterations: 10
 Time Step:  42700, Simulation Time:     17.00 s, Step Size: 0.00040 s, Pressure Iterations: 10
 Time Step:  42800, Simulation Time:     17.04 s, Step Size: 0.00044 s, Pressure Iterations: 10
 Time Step:  42900, Simulation Time:     17.09 s, Step Size: 0.00044 s, Pressure Iterations: 10
 Time Step:  43000, Simulation Time:     17.13 s, Step Size: 0.00042 s, Pressure Iterations: 10
 Time Step:  43100, Simulation Time:     17.17 s, Step Size: 0.00042 s, Pressure Iterations: 10
 Time Step:  43200, Simulation Time:     17.21 s, Step Size: 0.00042 s, Pressure Iterations: 10
 Time Step:  43300, Simulation Time:     17.25 s, Step Size: 0.00042 s, Pressure Iterations: 10
 Time Step:  43400, Simulation Time:     17.30 s, Step Size: 0.00046 s, Pressure Iterations: 10
 Time Step:  43500, Simulation Time:     17.34 s, Step Size: 0.00041 s, Pressure Iterations: 10
 Time Step:  43600, Simulation Time:     17.38 s, Step Size: 0.00041 s, Pressure Iterations: 10
 Time Step:  43700, Simulation Time:     17.42 s, Step Size: 0.00036 s, Pressure Iterations: 10
 Time Step:  43800, Simulation Time:     17.46 s, Step Size: 0.00036 s, Pressure Iterations: 10
 Time Step:  43900, Simulation Time:     17.50 s, Step Size: 0.00038 s, Pressure Iterations: 10
 Time Step:  44000, Simulation Time:     17.54 s, Step Size: 0.00038 s, Pressure Iterations: 10
 Time Step:  44100, Simulation Time:     17.58 s, Step Size: 0.00043 s, Pressure Iterations: 10
 Time Step:  44200, Simulation Time:     17.62 s, Step Size: 0.00047 s, Pressure Iterations: 10
 Time Step:  44300, Simulation Time:     17.66 s, Step Size: 0.00042 s, Pressure Iterations: 10
 Time Step:  44400, Simulation Time:     17.70 s, Step Size: 0.00041 s, Pressure Iterations: 10
 Time Step:  44500, Simulation Time:     17.74 s, Step Size: 0.00041 s, Pressure Iterations: 10
 Time Step:  44600, Simulation Time:     17.79 s, Step Size: 0.00039 s, Pressure Iterations: 10
 Time Step:  44700, Simulation Time:     17.83 s, Step Size: 0.00041 s, Pressure Iterations: 10
 Time Step:  44800, Simulation Time:     17.86 s, Step Size: 0.00035 s, Pressure Iterations: 10
 Time Step:  44900, Simulation Time:     17.90 s, Step Size: 0.00043 s, Pressure Iterations: 10
 Time Step:  45000, Simulation Time:     17.95 s, Step Size: 0.00043 s, Pressure Iterations: 9
 Time Step:  45100, Simulation Time:     17.98 s, Step Size: 0.00039 s, Pressure Iterations: 9
 Time Step:  45200, Simulation Time:     18.03 s, Step Size: 0.00042 s, Pressure Iterations: 10
 Time Step:  45300, Simulation Time:     18.07 s, Step Size: 0.00046 s, Pressure Iterations: 10
 Time Step:  45400, Simulation Time:     18.11 s, Step Size: 0.00040 s, Pressure Iterations: 10
 Time Step:  45500, Simulation Time:     18.15 s, Step Size: 0.00044 s, Pressure Iterations: 10
 Time Step:  45600, Simulation Time:     18.19 s, Step Size: 0.00043 s, Pressure Iterations: 10
 Time Step:  45700, Simulation Time:     18.23 s, Step Size: 0.00037 s, Pressure Iterations: 10
 Time Step:  45800, Simulation Time:     18.27 s, Step Size: 0.00044 s, Pressure Iterations: 10
 Time Step:  45900, Simulation Time:     18.31 s, Step Size: 0.00039 s, Pressure Iterations: 10
 Time Step:  46000, Simulation Time:     18.35 s, Step Size: 0.00041 s, Pressure Iterations: 10
 Time Step:  46100, Simulation Time:     18.39 s, Step Size: 0.00037 s, Pressure Iterations: 9
 Time Step:  46200, Simulation Time:     18.43 s, Step Size: 0.00040 s, Pressure Iterations: 10
 Time Step:  46300, Simulation Time:     18.47 s, Step Size: 0.00039 s, Pressure Iterations: 10
 Time Step:  46400, Simulation Time:     18.51 s, Step Size: 0.00039 s, Pressure Iterations: 10
 Time Step:  46500, Simulation Time:     18.55 s, Step Size: 0.00042 s, Pressure Iterations: 10
 Time Step:  46600, Simulation Time:     18.59 s, Step Size: 0.00042 s, Pressure Iterations: 10
 Time Step:  46700, Simulation Time:     18.63 s, Step Size: 0.00037 s, Pressure Iterations: 10
 Time Step:  46800, Simulation Time:     18.67 s, Step Size: 0.00044 s, Pressure Iterations: 10
 Time Step:  46900, Simulation Time:     18.72 s, Step Size: 0.00038 s, Pressure Iterations: 10
 Time Step:  47000, Simulation Time:     18.76 s, Step Size: 0.00042 s, Pressure Iterations: 10
 Time Step:  47100, Simulation Time:     18.80 s, Step Size: 0.00041 s, Pressure Iterations: 10
 Time Step:  47200, Simulation Time:     18.84 s, Step Size: 0.00045 s, Pressure Iterations: 10
 Time Step:  47300, Simulation Time:     18.88 s, Step Size: 0.00036 s, Pressure Iterations: 10
 Time Step:  47400, Simulation Time:     18.92 s, Step Size: 0.00043 s, Pressure Iterations: 10
 Time Step:  47500, Simulation Time:     18.96 s, Step Size: 0.00039 s, Pressure Iterations: 10
 Time Step:  47600, Simulation Time:     19.00 s, Step Size: 0.00043 s, Pressure Iterations: 10
 Time Step:  47700, Simulation Time:     19.05 s, Step Size: 0.00043 s, Pressure Iterations: 10
 Time Step:  47800, Simulation Time:     19.09 s, Step Size: 0.00038 s, Pressure Iterations: 10
 Time Step:  47900, Simulation Time:     19.13 s, Step Size: 0.00042 s, Pressure Iterations: 10
 Time Step:  48000, Simulation Time:     19.17 s, Step Size: 0.00042 s, Pressure Iterations: 10
 Time Step:  48100, Simulation Time:     19.21 s, Step Size: 0.00046 s, Pressure Iterations: 10
 Time Step:  48200, Simulation Time:     19.26 s, Step Size: 0.00037 s, Pressure Iterations: 10
 Time Step:  48300, Simulation Time:     19.29 s, Step Size: 0.00037 s, Pressure Iterations: 10
 Time Step:  48400, Simulation Time:     19.33 s, Step Size: 0.00039 s, Pressure Iterations: 10
 Time Step:  48500, Simulation Time:     19.37 s, Step Size: 0.00043 s, Pressure Iterations: 10
 Time Step:  48600, Simulation Time:     19.42 s, Step Size: 0.00042 s, Pressure Iterations: 10
 Time Step:  48700, Simulation Time:     19.46 s, Step Size: 0.00045 s, Pressure Iterations: 10
 Time Step:  48800, Simulation Time:     19.50 s, Step Size: 0.00041 s, Pressure Iterations: 10
 Time Step:  48900, Simulation Time:     19.54 s, Step Size: 0.00040 s, Pressure Iterations: 10
 Time Step:  49000, Simulation Time:     19.58 s, Step Size: 0.00048 s, Pressure Iterations: 10
 Time Step:  49100, Simulation Time:     19.63 s, Step Size: 0.00042 s, Pressure Iterations: 10
 Time Step:  49200, Simulation Time:     19.66 s, Step Size: 0.00037 s, Pressure Iterations: 10
 Time Step:  49300, Simulation Time:     19.70 s, Step Size: 0.00041 s, Pressure Iterations: 10
 Time Step:  49400, Simulation Time:     19.75 s, Step Size: 0.00040 s, Pressure Iterations: 10
 Time Step:  49500, Simulation Time:     19.79 s, Step Size: 0.00040 s, Pressure Iterations: 10
 Time Step:  49600, Simulation Time:     19.82 s, Step Size: 0.00039 s, Pressure Iterations: 10
 Time Step:  49700, Simulation Time:     19.87 s, Step Size: 0.00038 s, Pressure Iterations: 10
 Time Step:  49800, Simulation Time:     19.91 s, Step Size: 0.00046 s, Pressure Iterations: 10
 Time Step:  49900, Simulation Time:     19.95 s, Step Size: 0.00041 s, Pressure Iterations: 10
 Time Step:  50000, Simulation Time:     19.99 s, Step Size: 0.00036 s, Pressure Iterations: 10
 Time Step:  50100, Simulation Time:     20.02 s, Step Size: 0.00040 s, Pressure Iterations: 10
 Time Step:  50200, Simulation Time:     20.06 s, Step Size: 0.00040 s, Pressure Iterations: 10
 Time Step:  50300, Simulation Time:     20.10 s, Step Size: 0.00039 s, Pressure Iterations: 10
 Time Step:  50400, Simulation Time:     20.15 s, Step Size: 0.00043 s, Pressure Iterations: 10
 Time Step:  50500, Simulation Time:     20.19 s, Step Size: 0.00041 s, Pressure Iterations: 10
 Time Step:  50600, Simulation Time:     20.23 s, Step Size: 0.00041 s, Pressure Iterations: 10
 Time Step:  50700, Simulation Time:     20.27 s, Step Size: 0.00041 s, Pressure Iterations: 10
 Time Step:  50800, Simulation Time:     20.32 s, Step Size: 0.00046 s, Pressure Iterations: 10
 Time Step:  50900, Simulation Time:     20.36 s, Step Size: 0.00040 s, Pressure Iterations: 10
 Time Step:  51000, Simulation Time:     20.40 s, Step Size: 0.00039 s, Pressure Iterations: 10
 Time Step:  51100, Simulation Time:     20.44 s, Step Size: 0.00039 s, Pressure Iterations: 10
 Time Step:  51200, Simulation Time:     20.48 s, Step Size: 0.00043 s, Pressure Iterations: 10
 Time Step:  51300, Simulation Time:     20.53 s, Step Size: 0.00041 s, Pressure Iterations: 10
 Time Step:  51400, Simulation Time:     20.57 s, Step Size: 0.00045 s, Pressure Iterations: 10
 Time Step:  51500, Simulation Time:     20.61 s, Step Size: 0.00041 s, Pressure Iterations: 10
 Time Step:  51600, Simulation Time:     20.65 s, Step Size: 0.00045 s, Pressure Iterations: 10
 Time Step:  51700, Simulation Time:     20.70 s, Step Size: 0.00040 s, Pressure Iterations: 10
 Time Step:  51800, Simulation Time:     20.74 s, Step Size: 0.00043 s, Pressure Iterations: 10
 Time Step:  51900, Simulation Time:     20.78 s, Step Size: 0.00038 s, Pressure Iterations: 10
 Time Step:  52000, Simulation Time:     20.82 s, Step Size: 0.00042 s, Pressure Iterations: 10
 Time Step:  52100, Simulation Time:     20.86 s, Step Size: 0.00044 s, Pressure Iterations: 10
 Time Step:  52200, Simulation Time:     20.90 s, Step Size: 0.00043 s, Pressure Iterations: 10
 Time Step:  52300, Simulation Time:     20.95 s, Step Size: 0.00043 s, Pressure Iterations: 10
 Time Step:  52400, Simulation Time:     20.99 s, Step Size: 0.00043 s, Pressure Iterations: 10
 Time Step:  52500, Simulation Time:     21.03 s, Step Size: 0.00043 s, Pressure Iterations: 10
 Time Step:  52600, Simulation Time:     21.07 s, Step Size: 0.00038 s, Pressure Iterations: 10
 Time Step:  52700, Simulation Time:     21.11 s, Step Size: 0.00042 s, Pressure Iterations: 10
 Time Step:  52800, Simulation Time:     21.16 s, Step Size: 0.00041 s, Pressure Iterations: 10
 Time Step:  52900, Simulation Time:     21.19 s, Step Size: 0.00036 s, Pressure Iterations: 10
 Time Step:  53000, Simulation Time:     21.23 s, Step Size: 0.00040 s, Pressure Iterations: 10
 Time Step:  53100, Simulation Time:     21.27 s, Step Size: 0.00040 s, Pressure Iterations: 10
 Time Step:  53200, Simulation Time:     21.31 s, Step Size: 0.00035 s, Pressure Iterations: 10
 Time Step:  53300, Simulation Time:     21.35 s, Step Size: 0.00042 s, Pressure Iterations: 10
 Time Step:  53400, Simulation Time:     21.39 s, Step Size: 0.00042 s, Pressure Iterations: 10
 Time Step:  53500, Simulation Time:     21.44 s, Step Size: 0.00042 s, Pressure Iterations: 10
 Time Step:  53600, Simulation Time:     21.48 s, Step Size: 0.00047 s, Pressure Iterations: 10
 Time Step:  53700, Simulation Time:     21.53 s, Step Size: 0.00047 s, Pressure Iterations: 10
 Time Step:  53800, Simulation Time:     21.57 s, Step Size: 0.00041 s, Pressure Iterations: 10
 Time Step:  53900, Simulation Time:     21.61 s, Step Size: 0.00037 s, Pressure Iterations: 10
 Time Step:  54000, Simulation Time:     21.65 s, Step Size: 0.00040 s, Pressure Iterations: 10
 Time Step:  54100, Simulation Time:     21.69 s, Step Size: 0.00044 s, Pressure Iterations: 10
 Time Step:  54200, Simulation Time:     21.74 s, Step Size: 0.00044 s, Pressure Iterations: 10
 Time Step:  54300, Simulation Time:     21.78 s, Step Size: 0.00044 s, Pressure Iterations: 10
 Time Step:  54400, Simulation Time:     21.82 s, Step Size: 0.00044 s, Pressure Iterations: 10
[...]
 Time Step:  77500, Simulation Time:     32.64 s, Step Size: 0.00053 s, Pressure Iterations: 10
 Time Step:  77600, Simulation Time:     32.69 s, Step Size: 0.00058 s, Pressure Iterations: 10
 Time Step:  77700, Simulation Time:     32.76 s, Step Size: 0.00064 s, Pressure Iterations: 10
 Time Step:  77800, Simulation Time:     32.82 s, Step Size: 0.00063 s, Pressure Iterations: 10
 Time Step:  77900, Simulation Time:     32.88 s, Step Size: 0.00055 s, Pressure Iterations: 10
 Time Step:  78000, Simulation Time:     32.93 s, Step Size: 0.00055 s, Pressure Iterations: 10
 Time Step:  78100, Simulation Time:     32.99 s, Step Size: 0.00061 s, Pressure Iterations: 10
 Time Step:  78200, Simulation Time:     33.05 s, Step Size: 0.00061 s, Pressure Iterations: 10
 Time Step:  78300, Simulation Time:     33.11 s, Step Size: 0.00054 s, Pressure Iterations: 10
 Time Step:  78400, Simulation Time:     33.16 s, Step Size: 0.00054 s, Pressure Iterations: 10
 Time Step:  78500, Simulation Time:     33.22 s, Step Size: 0.00065 s, Pressure Iterations: 10
 Time Step:  78600, Simulation Time:     33.28 s, Step Size: 0.00058 s, Pressure Iterations: 10
 Time Step:  78700, Simulation Time:     33.34 s, Step Size: 0.00058 s, Pressure Iterations: 10
 Time Step:  78800, Simulation Time:     33.40 s, Step Size: 0.00058 s, Pressure Iterations: 10
 Time Step:  78900, Simulation Time:     33.46 s, Step Size: 0.00063 s, Pressure Iterations: 10
 Time Step:  79000, Simulation Time:     33.52 s, Step Size: 0.00057 s, Pressure Iterations: 10
 Time Step:  79100, Simulation Time:     33.58 s, Step Size: 0.00062 s, Pressure Iterations: 10
 Time Step:  79200, Simulation Time:     33.64 s, Step Size: 0.00061 s, Pressure Iterations: 10
 Time Step:  79300, Simulation Time:     33.71 s, Step Size: 0.00066 s, Pressure Iterations: 10
 Time Step:  79400, Simulation Time:     33.78 s, Step Size: 0.00065 s, Pressure Iterations: 10
 Time Step:  79500, Simulation Time:     33.84 s, Step Size: 0.00062 s, Pressure Iterations: 10
 Time Step:  79600, Simulation Time:     33.90 s, Step Size: 0.00062 s, Pressure Iterations: 10
 Time Step:  79700, Simulation Time:     33.96 s, Step Size: 0.00068 s, Pressure Iterations: 10
 Time Step:  79800, Simulation Time:     34.03 s, Step Size: 0.00068 s, Pressure Iterations: 10
 Time Step:  79900, Simulation Time:     34.10 s, Step Size: 0.00061 s, Pressure Iterations: 10
 Time Step:  80000, Simulation Time:     34.16 s, Step Size: 0.00066 s, Pressure Iterations: 10
 Time Step:  80100, Simulation Time:     34.22 s, Step Size: 0.00056 s, Pressure Iterations: 10
 Time Step:  80200, Simulation Time:     34.28 s, Step Size: 0.00068 s, Pressure Iterations: 10
 Time Step:  80300, Simulation Time:     34.35 s, Step Size: 0.00067 s, Pressure Iterations: 10
 Time Step:  80400, Simulation Time:     34.42 s, Step Size: 0.00072 s, Pressure Iterations: 10
 Time Step:  80500, Simulation Time:     34.49 s, Step Size: 0.00071 s, Pressure Iterations: 10
 Time Step:  80600, Simulation Time:     34.56 s, Step Size: 0.00069 s, Pressure Iterations: 10
 Time Step:  80700, Simulation Time:     34.63 s, Step Size: 0.00076 s, Pressure Iterations: 9
 Time Step:  80800, Simulation Time:     34.70 s, Step Size: 0.00067 s, Pressure Iterations: 10
 Time Step:  80900, Simulation Time:     34.77 s, Step Size: 0.00072 s, Pressure Iterations: 10
 Time Step:  81000, Simulation Time:     34.84 s, Step Size: 0.00072 s, Pressure Iterations: 10
 Time Step:  81100, Simulation Time:     34.91 s, Step Size: 0.00078 s, Pressure Iterations: 10
 Time Step:  81200, Simulation Time:     34.98 s, Step Size: 0.00068 s, Pressure Iterations: 10
 Time Step:  81300, Simulation Time:     35.06 s, Step Size: 0.00082 s, Pressure Iterations: 10
 Time Step:  81400, Simulation Time:     35.14 s, Step Size: 0.00073 s, Pressure Iterations: 10
 Time Step:  81500, Simulation Time:     35.21 s, Step Size: 0.00080 s, Pressure Iterations: 10
 Time Step:  81600, Simulation Time:     35.29 s, Step Size: 0.00080 s, Pressure Iterations: 10
 Time Step:  81700, Simulation Time:     35.37 s, Step Size: 0.00080 s, Pressure Iterations: 8
 Time Step:  81800, Simulation Time:     35.45 s, Step Size: 0.00077 s, Pressure Iterations: 10
 Time Step:  81900, Simulation Time:     35.53 s, Step Size: 0.00077 s, Pressure Iterations: 10
 Time Step:  82000, Simulation Time:     35.61 s, Step Size: 0.00075 s, Pressure Iterations: 10
 Time Step:  82100, Simulation Time:     35.69 s, Step Size: 0.00081 s, Pressure Iterations: 10
 Time Step:  82200, Simulation Time:     35.77 s, Step Size: 0.00081 s, Pressure Iterations: 10
 Time Step:  82300, Simulation Time:     35.85 s, Step Size: 0.00073 s, Pressure Iterations: 9
 Time Step:  82400, Simulation Time:     35.93 s, Step Size: 0.00089 s, Pressure Iterations: 10
 Time Step:  82500, Simulation Time:     36.03 s, Step Size: 0.00086 s, Pressure Iterations: 7
 Time Step:  82600, Simulation Time:     36.11 s, Step Size: 0.00086 s, Pressure Iterations: 10
 Time Step:  82700, Simulation Time:     36.20 s, Step Size: 0.00076 s, Pressure Iterations: 10
 Time Step:  82800, Simulation Time:     36.29 s, Step Size: 0.00101 s, Pressure Iterations: 10
 Time Step:  82900, Simulation Time:     36.39 s, Step Size: 0.00101 s, Pressure Iterations: 9
 Time Step:  83000, Simulation Time:     36.48 s, Step Size: 0.00088 s, Pressure Iterations: 7
 Time Step:  83100, Simulation Time:     36.58 s, Step Size: 0.00095 s, Pressure Iterations: 9
 Time Step:  83200, Simulation Time:     36.69 s, Step Size: 0.00104 s, Pressure Iterations: 7
 Time Step:  83300, Simulation Time:     36.79 s, Step Size: 0.00092 s, Pressure Iterations: 6
 Time Step:  83400, Simulation Time:     36.88 s, Step Size: 0.00100 s, Pressure Iterations: 9
 Time Step:  83500, Simulation Time:     36.99 s, Step Size: 0.00099 s, Pressure Iterations: 8
 Time Step:  83600, Simulation Time:     37.09 s, Step Size: 0.00108 s, Pressure Iterations: 6
 Time Step:  83700, Simulation Time:     37.21 s, Step Size: 0.00107 s, Pressure Iterations: 6
 Time Step:  83800, Simulation Time:     37.32 s, Step Size: 0.00117 s, Pressure Iterations: 9
 Time Step:  83900, Simulation Time:     37.43 s, Step Size: 0.00117 s, Pressure Iterations: 8
 Time Step:  84000, Simulation Time:     37.55 s, Step Size: 0.00117 s, Pressure Iterations: 8
 Time Step:  84100, Simulation Time:     37.68 s, Step Size: 0.00123 s, Pressure Iterations: 7
 Time Step:  84200, Simulation Time:     37.80 s, Step Size: 0.00110 s, Pressure Iterations: 6
 Time Step:  84300, Simulation Time:     37.91 s, Step Size: 0.00110 s, Pressure Iterations: 8
 Time Step:  84400, Simulation Time:     38.02 s, Step Size: 0.00095 s, Pressure Iterations: 8
 Time Step:  84500, Simulation Time:     38.14 s, Step Size: 0.00127 s, Pressure Iterations: 7
 Time Step:  84600, Simulation Time:     38.26 s, Step Size: 0.00134 s, Pressure Iterations: 6
 Time Step:  84700, Simulation Time:     38.40 s, Step Size: 0.00134 s, Pressure Iterations: 6
 Time Step:  84800, Simulation Time:     38.53 s, Step Size: 0.00130 s, Pressure Iterations: 6
 Time Step:  84900, Simulation Time:     38.65 s, Step Size: 0.00114 s, Pressure Iterations: 6
 Time Step:  85000, Simulation Time:     38.77 s, Step Size: 0.00123 s, Pressure Iterations: 6
 Time Step:  85100, Simulation Time:     38.90 s, Step Size: 0.00136 s, Pressure Iterations: 7
 Time Step:  85200, Simulation Time:     39.04 s, Step Size: 0.00136 s, Pressure Iterations: 7
 Time Step:  85300, Simulation Time:     39.17 s, Step Size: 0.00136 s, Pressure Iterations: 6
 Time Step:  85400, Simulation Time:     39.31 s, Step Size: 0.00149 s, Pressure Iterations: 6
 Time Step:  85500, Simulation Time:     39.46 s, Step Size: 0.00149 s, Pressure Iterations: 7
 Time Step:  85600, Simulation Time:     39.61 s, Step Size: 0.00161 s, Pressure Iterations: 6
 Time Step:  85700, Simulation Time:     39.76 s, Step Size: 0.00158 s, Pressure Iterations: 6
 Time Step:  85800, Simulation Time:     39.92 s, Step Size: 0.00158 s, Pressure Iterations: 5
 Time Step:  85900, Simulation Time:     40.08 s, Step Size: 0.00158 s, Pressure Iterations: 6
 Time Step:  86000, Simulation Time:     40.24 s, Step Size: 0.00158 s, Pressure Iterations: 6
 Time Step:  86100, Simulation Time:     40.42 s, Step Size: 0.00191 s, Pressure Iterations: 6
 Time Step:  86200, Simulation Time:     40.61 s, Step Size: 0.00202 s, Pressure Iterations: 5
 Time Step:  86300, Simulation Time:     40.81 s, Step Size: 0.00222 s, Pressure Iterations: 7
 Time Step:  86400, Simulation Time:     41.03 s, Step Size: 0.00222 s, Pressure Iterations: 5
 Time Step:  86500, Simulation Time:     41.24 s, Step Size: 0.00211 s, Pressure Iterations: 10
 Time Step:  86600, Simulation Time:     41.47 s, Step Size: 0.00232 s, Pressure Iterations: 5
 Time Step:  86700, Simulation Time:     41.70 s, Step Size: 0.00232 s, Pressure Iterations: 10
 Time Step:  86800, Simulation Time:     41.94 s, Step Size: 0.00232 s, Pressure Iterations: 3
 Time Step:  86900, Simulation Time:     42.17 s, Step Size: 0.00232 s, Pressure Iterations: 3
 Time Step:  87000, Simulation Time:     42.40 s, Step Size: 0.00232 s, Pressure Iterations: 2
 Time Step:  87100, Simulation Time:     42.63 s, Step Size: 0.00232 s, Pressure Iterations: 7
 Time Step:  87200, Simulation Time:     42.86 s, Step Size: 0.00232 s, Pressure Iterations: 9
 Time Step:  87300, Simulation Time:     43.10 s, Step Size: 0.00232 s, Pressure Iterations: 2
 Time Step:  87400, Simulation Time:     43.33 s, Step Size: 0.00232 s, Pressure Iterations: 4
 Time Step:  87500, Simulation Time:     43.56 s, Step Size: 0.00232 s, Pressure Iterations: 4
 Time Step:  87600, Simulation Time:     43.79 s, Step Size: 0.00232 s, Pressure Iterations: 2
 Time Step:  87700, Simulation Time:     44.02 s, Step Size: 0.00232 s, Pressure Iterations: 10
 Time Step:  87800, Simulation Time:     44.26 s, Step Size: 0.00232 s, Pressure Iterations: 2
 Time Step:  87900, Simulation Time:     44.49 s, Step Size: 0.00232 s, Pressure Iterations: 4
 Time Step:  88000, Simulation Time:     44.72 s, Step Size: 0.00232 s, Pressure Iterations: 10
 Time Step:  88100, Simulation Time:     44.95 s, Step Size: 0.00232 s, Pressure Iterations: 2
 Time Step:  88200, Simulation Time:     45.18 s, Step Size: 0.00232 s, Pressure Iterations: 5
 Time Step:  88300, Simulation Time:     45.42 s, Step Size: 0.00232 s, Pressure Iterations: 2
 Time Step:  88400, Simulation Time:     45.65 s, Step Size: 0.00232 s, Pressure Iterations: 4
 Time Step:  88500, Simulation Time:     45.88 s, Step Size: 0.00232 s, Pressure Iterations: 2
 Time Step:  88600, Simulation Time:     46.11 s, Step Size: 0.00232 s, Pressure Iterations: 2
 Time Step:  88700, Simulation Time:     46.34 s, Step Size: 0.00232 s, Pressure Iterations: 2
 Time Step:  88800, Simulation Time:     46.58 s, Step Size: 0.00232 s, Pressure Iterations: 10
 Time Step:  88900, Simulation Time:     46.81 s, Step Size: 0.00232 s, Pressure Iterations: 10
 Time Step:  89000, Simulation Time:     47.04 s, Step Size: 0.00232 s, Pressure Iterations: 10
 Time Step:  89100, Simulation Time:     47.27 s, Step Size: 0.00232 s, Pressure Iterations: 2
 Time Step:  89200, Simulation Time:     47.50 s, Step Size: 0.00232 s, Pressure Iterations: 7
 Time Step:  89300, Simulation Time:     47.72 s, Step Size: 0.00208 s, Pressure Iterations: 2
 Time Step:  89400, Simulation Time:     47.92 s, Step Size: 0.00208 s, Pressure Iterations: 2
 Time Step:  89500, Simulation Time:     48.13 s, Step Size: 0.00208 s, Pressure Iterations: 2
 Time Step:  89600, Simulation Time:     48.34 s, Step Size: 0.00208 s, Pressure Iterations: 4
 Time Step:  89700, Simulation Time:     48.55 s, Step Size: 0.00208 s, Pressure Iterations: 2
 Time Step:  89800, Simulation Time:     48.76 s, Step Size: 0.00208 s, Pressure Iterations: 6
 Time Step:  89900, Simulation Time:     48.97 s, Step Size: 0.00229 s, Pressure Iterations: 2
 Time Step:  90000, Simulation Time:     49.20 s, Step Size: 0.00229 s, Pressure Iterations: 3
 Time Step:  90100, Simulation Time:     49.43 s, Step Size: 0.00229 s, Pressure Iterations: 10
 Time Step:  90200, Simulation Time:     49.66 s, Step Size: 0.00229 s, Pressure Iterations: 10
 Time Step:  90300, Simulation Time:     49.89 s, Step Size: 0.00229 s, Pressure Iterations: 2
 Time Step:  90400, Simulation Time:     50.12 s, Step Size: 0.00229 s, Pressure Iterations: 2
 Time Step:  90500, Simulation Time:     50.35 s, Step Size: 0.00229 s, Pressure Iterations: 6
 Time Step:  90600, Simulation Time:     50.57 s, Step Size: 0.00229 s, Pressure Iterations: 10
 Time Step:  90700, Simulation Time:     50.78 s, Step Size: 0.00206 s, Pressure Iterations: 7
 Time Step:  90800, Simulation Time:     50.99 s, Step Size: 0.00206 s, Pressure Iterations: 5
 Time Step:  90900, Simulation Time:     51.19 s, Step Size: 0.00206 s, Pressure Iterations: 7
 Time Step:  91000, Simulation Time:     51.40 s, Step Size: 0.00206 s, Pressure Iterations: 4
 Time Step:  91100, Simulation Time:     51.61 s, Step Size: 0.00206 s, Pressure Iterations: 3
 Time Step:  91200, Simulation Time:     51.81 s, Step Size: 0.00206 s, Pressure Iterations: 7
 Time Step:  91300, Simulation Time:     52.02 s, Step Size: 0.00206 s, Pressure Iterations: 2
 Time Step:  91400, Simulation Time:     52.22 s, Step Size: 0.00206 s, Pressure Iterations: 6
 Time Step:  91500, Simulation Time:     52.43 s, Step Size: 0.00206 s, Pressure Iterations: 3
 Time Step:  91600, Simulation Time:     52.64 s, Step Size: 0.00206 s, Pressure Iterations: 10
 Time Step:  91700, Simulation Time:     52.84 s, Step Size: 0.00206 s, Pressure Iterations: 2
 Time Step:  91800, Simulation Time:     53.05 s, Step Size: 0.00206 s, Pressure Iterations: 3
 Time Step:  91900, Simulation Time:     53.25 s, Step Size: 0.00206 s, Pressure Iterations: 10
 Time Step:  92000, Simulation Time:     53.46 s, Step Size: 0.00206 s, Pressure Iterations: 4
 Time Step:  92100, Simulation Time:     53.67 s, Step Size: 0.00206 s, Pressure Iterations: 10
 Time Step:  92200, Simulation Time:     53.87 s, Step Size: 0.00206 s, Pressure Iterations: 3
 Time Step:  92300, Simulation Time:     54.08 s, Step Size: 0.00206 s, Pressure Iterations: 2
 Time Step:  92400, Simulation Time:     54.28 s, Step Size: 0.00206 s, Pressure Iterations: 7
 Time Step:  92500, Simulation Time:     54.49 s, Step Size: 0.00206 s, Pressure Iterations: 3
 Time Step:  92600, Simulation Time:     54.70 s, Step Size: 0.00206 s, Pressure Iterations: 4
 Time Step:  92700, Simulation Time:     54.90 s, Step Size: 0.00206 s, Pressure Iterations: 8
 Time Step:  92800, Simulation Time:     55.11 s, Step Size: 0.00206 s, Pressure Iterations: 2
 Time Step:  92900, Simulation Time:     55.32 s, Step Size: 0.00206 s, Pressure Iterations: 10
 Time Step:  93000, Simulation Time:     55.52 s, Step Size: 0.00206 s, Pressure Iterations: 3
 Time Step:  93100, Simulation Time:     55.71 s, Step Size: 0.00185 s, Pressure Iterations: 7
 Time Step:  93200, Simulation Time:     55.91 s, Step Size: 0.00204 s, Pressure Iterations: 10
 Time Step:  93300, Simulation Time:     56.11 s, Step Size: 0.00204 s, Pressure Iterations: 10
 Time Step:  93400, Simulation Time:     56.32 s, Step Size: 0.00204 s, Pressure Iterations: 3
 Time Step:  93500, Simulation Time:     56.52 s, Step Size: 0.00204 s, Pressure Iterations: 10
 Time Step:  93600, Simulation Time:     56.73 s, Step Size: 0.00204 s, Pressure Iterations: 10
 Time Step:  93700, Simulation Time:     56.93 s, Step Size: 0.00204 s, Pressure Iterations: 7
 Time Step:  93800, Simulation Time:     57.13 s, Step Size: 0.00204 s, Pressure Iterations: 3
 Time Step:  93900, Simulation Time:     57.34 s, Step Size: 0.00204 s, Pressure Iterations: 10
 Time Step:  94000, Simulation Time:     57.53 s, Step Size: 0.00184 s, Pressure Iterations: 2
 Time Step:  94100, Simulation Time:     57.72 s, Step Size: 0.00184 s, Pressure Iterations: 6
 Time Step:  94200, Simulation Time:     57.90 s, Step Size: 0.00184 s, Pressure Iterations: 7
 Time Step:  94300, Simulation Time:     58.08 s, Step Size: 0.00184 s, Pressure Iterations: 2
 Time Step:  94400, Simulation Time:     58.27 s, Step Size: 0.00184 s, Pressure Iterations: 8
 Time Step:  94500, Simulation Time:     58.45 s, Step Size: 0.00184 s, Pressure Iterations: 10
 Time Step:  94600, Simulation Time:     58.63 s, Step Size: 0.00184 s, Pressure Iterations: 3
 Time Step:  94700, Simulation Time:     58.82 s, Step Size: 0.00184 s, Pressure Iterations: 4
 Time Step:  94800, Simulation Time:     59.00 s, Step Size: 0.00184 s, Pressure Iterations: 2
 Time Step:  94900, Simulation Time:     59.19 s, Step Size: 0.00184 s, Pressure Iterations: 10
 Time Step:  95000, Simulation Time:     59.37 s, Step Size: 0.00184 s, Pressure Iterations: 2
 Time Step:  95100, Simulation Time:     59.55 s, Step Size: 0.00184 s, Pressure Iterations: 8
 Time Step:  95200, Simulation Time:     59.74 s, Step Size: 0.00184 s, Pressure Iterations: 3
 Time Step:  95300, Simulation Time:     59.92 s, Step Size: 0.00184 s, Pressure Iterations: 10
 Time Step:  95400, Simulation Time:     60.10 s, Step Size: 0.00184 s, Pressure Iterations: 9
 Time Step:  95500, Simulation Time:     60.29 s, Step Size: 0.00184 s, Pressure Iterations: 2
 Time Step:  95600, Simulation Time:     60.47 s, Step Size: 0.00184 s, Pressure Iterations: 3
 Time Step:  95700, Simulation Time:     60.65 s, Step Size: 0.00184 s, Pressure Iterations: 2
 Time Step:  95800, Simulation Time:     60.84 s, Step Size: 0.00184 s, Pressure Iterations: 2
 Time Step:  95900, Simulation Time:     61.02 s, Step Size: 0.00184 s, Pressure Iterations: 2
 Time Step:  96000, Simulation Time:     61.20 s, Step Size: 0.00184 s, Pressure Iterations: 5
 Time Step:  96100, Simulation Time:     61.39 s, Step Size: 0.00184 s, Pressure Iterations: 10
 Time Step:  96200, Simulation Time:     61.57 s, Step Size: 0.00184 s, Pressure Iterations: 2
 Time Step:  96300, Simulation Time:     61.75 s, Step Size: 0.00184 s, Pressure Iterations: 3
 Time Step:  96400, Simulation Time:     61.94 s, Step Size: 0.00184 s, Pressure Iterations: 2
 Time Step:  96500, Simulation Time:     62.12 s, Step Size: 0.00184 s, Pressure Iterations: 5
 Time Step:  96600, Simulation Time:     62.30 s, Step Size: 0.00184 s, Pressure Iterations: 3
 Time Step:  96700, Simulation Time:     62.49 s, Step Size: 0.00184 s, Pressure Iterations: 9
 Time Step:  96800, Simulation Time:     62.67 s, Step Size: 0.00184 s, Pressure Iterations: 5
 Time Step:  96900, Simulation Time:     62.86 s, Step Size: 0.00184 s, Pressure Iterations: 10
 Time Step:  97000, Simulation Time:     63.04 s, Step Size: 0.00184 s, Pressure Iterations: 3
 Time Step:  97100, Simulation Time:     63.22 s, Step Size: 0.00184 s, Pressure Iterations: 10
 Time Step:  97200, Simulation Time:     63.41 s, Step Size: 0.00184 s, Pressure Iterations: 9
 Time Step:  97300, Simulation Time:     63.59 s, Step Size: 0.00184 s, Pressure Iterations: 6
 Time Step:  97400, Simulation Time:     63.77 s, Step Size: 0.00184 s, Pressure Iterations: 6
 Time Step:  97500, Simulation Time:     63.96 s, Step Size: 0.00184 s, Pressure Iterations: 3
 Time Step:  97600, Simulation Time:     64.14 s, Step Size: 0.00184 s, Pressure Iterations: 9
 Time Step:  97700, Simulation Time:     64.32 s, Step Size: 0.00184 s, Pressure Iterations: 6
 Time Step:  97800, Simulation Time:     64.51 s, Step Size: 0.00184 s, Pressure Iterations: 10
 Time Step:  97900, Simulation Time:     64.69 s, Step Size: 0.00184 s, Pressure Iterations: 10
 Time Step:  98000, Simulation Time:     64.87 s, Step Size: 0.00184 s, Pressure Iterations: 8
 Time Step:  98069, Simulation Time:     65.00 s, Step Size: 0.00099 s, Pressure Iterations: 10


 Time Stepping Wall Clock Time (s):   104844.574
 Total Elapsed Wall Clock Time (s):   104866.944

STOP: FDS completed successfully (CHID: FM_15cm_Burner_C3H8_5mm)
